data_image0
_chemical_formula_structural       AsSi2As2Si2As2Si2As2Si2As2Si2As2Si2As2Si2As2Si2As2Si2As2Si2As2Si2As2Si2As49SiAs2Si2As2Si2As2Si2As2Si2As2Si2As2Si2As2Si2As2Si2As2Si2As2Si2As2Si2As2SiAs49Si2As2Si2As2Si2As2Si2As2Si2As2Si2As2Si2As2Si2As2Si2As2Si2As2Si2As2Si2As49SiAs2Si2As2Si2As2Si2As2Si2As2Si2As2Si2As2Si2As2Si2As2Si2As2Si2As2Si2As2SiAs49Si2As2Si2As2Si2As2Si2As2Si2As2Si2As2Si2As2Si2As2Si2As2Si2As2Si2As2Si2As49SiAs2Si2As2Si2As2Si2As2Si2As2Si2As2Si2As2Si2As2Si2As2Si2As2Si2As2Si2As2SiAs49Si2As2Si2As2Si2As2Si2As2Si2As2Si2As2Si2As2Si2As2Si2As2Si2As2Si2As2Si2As49SiAs2Si2As2Si2As2Si2As2Si2As2Si2As2Si2As2Si2As2Si2As2Si2As2Si2As2Si2As2SiAs49Si2As2Si2As2Si2As2Si2As2Si2As2Si2As2Si2As2Si2As2Si2As2Si2As2Si2As2Si2As49SiAs2Si2As2Si2As2Si2As2Si2As2Si2As2Si2As2Si2As2Si2As2Si2As2Si2As2Si2As2SiAs49Si2As2Si2As2Si2As2Si2As2Si2As2Si2As2Si2As2Si2As2Si2As2Si2As2Si2As2Si2As49SiAs2Si2As2Si2As2Si2As2Si2As2Si2As2Si2As2Si2As2Si2As2Si2As2Si2As2Si2As2SiAs49Si2As2Si2As2Si2As2Si2As2Si2As2Si2As2Si2As2Si2As2Si2As2Si2As2Si2As2Si2As49SiAs2Si2As2Si2As2Si2As2Si2As2Si2As2Si2As2Si2As2Si2As2Si2As2Si2As2Si2As2SiAs49Si2As2Si2As2Si2As2Si2As2Si2As2Si2As2Si2As2Si2As2Si2As2Si2As2Si2As2Si2As49SiAs2Si2As2Si2As2Si2As2Si2As2Si2As2Si2As2Si2As2Si2As2Si2As2Si2As2Si2As2SiAs49Si2As2Si2As2Si2As2Si2As2Si2As2Si2As2Si2As2Si2As2Si2As2Si2As2Si2As2Si2As49SiAs2Si2As2Si2As2Si2As2Si2As2Si2As2Si2As2Si2As2Si2As2Si2As2Si2As2Si2As2SiAs49Si2As2Si2As2Si2As2Si2As2Si2As2Si2As2Si2As2Si2As2Si2As2Si2As2Si2As2Si2As49SiAs2Si2As2Si2As2Si2As2Si2As2Si2As2Si2As2Si2As2Si2As2Si2As2Si2As2Si2As2SiAs49Si2As2Si2As2Si2As2Si2As2Si2As2Si2As2Si2As2Si2As2Si2As2Si2As2Si2As2Si2As49SiAs2Si2As2Si2As2Si2As2Si2As2Si2As2Si2As2Si2As2Si2As2Si2As2Si2As2Si2As2SiAs49Si2As2Si2As2Si2As2Si2As2Si2As2Si2As2Si2As2Si2As2Si2As2Si2As2Si2As2Si2As49SiAs2Si2As2Si2As2Si2As2Si2As2Si2As2Si2As2Si2As2Si2As2Si2As2Si2As2Si2As2SiAs48
_chemical_formula_sum              "As1728 Si576"
_cell_length_a       152.5
_cell_length_b       88.0
_cell_length_c       5.0
_cell_angle_alpha    90.0
_cell_angle_beta     90.0
_cell_angle_gamma    90.0

_space_group_name_H-M_alt    "P 1"
_space_group_IT_number       1

loop_
  _space_group_symop_operation_xyz
  'x, y, z'

loop_
  _atom_site_type_symbol
  _atom_site_label
  _atom_site_symmetry_multiplicity
  _atom_site_fract_x
  _atom_site_fract_y
  _atom_site_fract_z
  _atom_site_occupancy
  As  As1       1.0  0.013114754098360656  0.0013429752066115705  0.6034035945695184  1.0000
  Si  Si1       1.0  0.027540983946725894  0.0013429754388374932  0.5945163889482611  1.0000
  Si  Si2       1.0  0.05508196755328327  0.0013429754388374932  0.607620684185734  1.0000
  As  As2       1.0  0.06950819672131149  0.0013429752066115705  0.6048759633634824  1.0000
  As  As3       1.0  0.09639344262295083  0.0013429752066115705  0.6036120448640404  1.0000
  Si  Si3       1.0  0.11081967247131606  0.0013429754388374932  0.5978592410771518  1.0000
  Si  Si4       1.0  0.13836065607787343  0.0013429754388374932  0.6017060529866651  1.0000
  As  As4       1.0  0.15278688524590164  0.0013429752066115705  0.5936533899157471  1.0000
  As  As5       1.0  0.179672131147541  0.0013429752066115705  0.6033181773390801  1.0000
  Si  Si5       1.0  0.19409836099590622  0.0013429754388374932  0.5976503793555112  1.0000
  Si  Si6       1.0  0.2216393446024636  0.0013429754388374932  0.5935650002888309  1.0000
  As  As6       1.0  0.2360655737704918  0.0013429752066115705  0.6027059904882779  1.0000
  As  As7       1.0  0.26295081967213113  0.0013429752066115705  0.6061691973671709  1.0000
  Si  Si7       1.0  0.2773770495204964  0.0013429754388374932  0.5967862491770276  1.0000
  Si  Si8       1.0  0.3049180331270538  0.0013429754388374932  0.6023280791294777  1.0000
  As  As8       1.0  0.319344262295082  0.0013429752066115705  0.6070175781496235  1.0000
  As  As9       1.0  0.3462295081967213  0.0013429752066115705  0.5962116819740945  1.0000
  Si  Si9       1.0  0.36065573804508655  0.0013429754388374932  0.6077572669972167  1.0000
  Si  Si10      1.0  0.388852459356562  0.0013429754388374932  0.593510744150286  1.0000
  As  As10      1.0  0.40327868852459015  0.0013429752066115705  0.6086846852466151  1.0000
  As  As11      1.0  0.42950819672131146  0.0013429752066115705  0.6011086397665705  1.0000
  Si  Si11      1.0  0.44393442656967674  0.0013429754388374932  0.5920461364981743  1.0000
  Si  Si12      1.0  0.4721311478811521  0.0013429754388374932  0.5982408664371975  1.0000
  As  As12      1.0  0.48655737704918034  0.0013429752066115705  0.6062164004968731  1.0000
  As  As13      1.0  0.5127868852459017  0.0013429752066115705  0.6004677304196353  1.0000
  Si  Si13      1.0  0.5272131150942669  0.0013429754388374932  0.5939700080138354  1.0000
  Si  Si14      1.0  0.5554098364057424  0.0013429754388374932  0.5928960151982039  1.0000
  As  As14      1.0  0.5698360655737705  0.0013429752066115705  0.6005799917165753  1.0000
  As  As15      1.0  0.5960655737704919  0.0013429752066115705  0.5937509614052127  1.0000
  Si  Si15      1.0  0.6104918036188571  0.0013429754388374932  0.6071480511112973  1.0000
  Si  Si16      1.0  0.6386885249303325  0.0013429754388374932  0.597286165027266  1.0000
  As  As16      1.0  0.6531147540983607  0.0013429752066115705  0.5945298222179506  1.0000
  As  As17      1.0  0.68  0.0013429752066115705  0.6086477937375698  1.0000
  Si  Si17      1.0  0.6944262298483652  0.0013429754388374932  0.6093344940971737  1.0000
  Si  Si18      1.0  0.7219672134549227  0.0013429754388374932  0.6086037924420034  1.0000
  As  As18      1.0  0.7363934426229509  0.0013429752066115705  0.6010087208449738  1.0000
  As  As19      1.0  0.7632786885245902  0.0013429752066115705  0.6048964767056884  1.0000
  Si  Si19      1.0  0.7777049183729554  0.0013429754388374932  0.598550628256505  1.0000
  Si  Si20      1.0  0.8052459019795127  0.0013429754388374932  0.6031965386420235  1.0000
  As  As20      1.0  0.819672131147541  0.0013429752066115705  0.6038812126500268  1.0000
  As  As21      1.0  0.8465573770491803  0.0013429752066115705  0.6028671218143616  1.0000
  Si  Si21      1.0  0.8609836068975455  0.0013429754388374932  0.6010792105030951  1.0000
  Si  Si22      1.0  0.8885245905041029  0.0013429754388374932  0.5931377421883199  1.0000
  As  As22      1.0  0.9029508196721313  0.0013429752066115705  0.609673786646773  1.0000
  As  As23      1.0  0.9298360655737705  0.0013429752066115705  0.6069281457624724  1.0000
  Si  Si23      1.0  0.9442622954221358  0.0013429754388374932  0.5964523692656643  1.0000
  Si  Si24      1.0  0.971803279028693  0.0013429754388374932  0.6073620744065931  1.0000
  As  As24      1.0  0.9862295081967214  0.0013429752066115705  0.6053417022192162  1.0000
  As  As25      1.0  0.006557377049180328  0.01931818181818182  0.6000695299987653  1.0000
  As  As26      1.0  0.034754098360655745  0.020454545454545454  0.6097860441668417  1.0000
  As  As27      1.0  0.0478688524590164  0.020454545454545454  0.6078470267971985  1.0000
  As  As28      1.0  0.0760655737704918  0.01931818181818182  0.6098855500433943  1.0000
  As  As29      1.0  0.0898360655737705  0.01931818181818182  0.591044675190377  1.0000
  As  As30      1.0  0.1180327868852459  0.020454545454545454  0.5907395618491017  1.0000
  As  As31      1.0  0.13114754098360656  0.020454545454545454  0.6028600329146067  1.0000
  As  As32      1.0  0.15934426229508197  0.01931818181818182  0.6081236646625641  1.0000
  As  As33      1.0  0.17311475409836066  0.01931818181818182  0.5944997877656711  1.0000
  As  As34      1.0  0.20131147540983607  0.020454545454545454  0.6083753546859167  1.0000
  As  As35      1.0  0.21442622950819673  0.020454545454545454  0.602735899129027  1.0000
  As  As36      1.0  0.24327868852459017  0.01931818181818182  0.5935547494280123  1.0000
  As  As37      1.0  0.25639344262295083  0.01931818181818182  0.6076757362190778  1.0000
  As  As38      1.0  0.28459016393442627  0.020454545454545454  0.5983969188457859  1.0000
  As  As39      1.0  0.2977049180327869  0.020454545454545454  0.6001711264613375  1.0000
  As  As40      1.0  0.32655737704918036  0.01931818181818182  0.5942580919713306  1.0000
  As  As41      1.0  0.339672131147541  0.01931818181818182  0.6088253213098197  1.0000
  As  As42      1.0  0.3678688524590164  0.020454545454545454  0.6069519502100482  1.0000
  As  As43      1.0  0.3816393442622951  0.020454545454545454  0.6029036188966824  1.0000
  As  As44      1.0  0.4098360655737705  0.01931818181818182  0.5968120724862953  1.0000
  As  As45      1.0  0.42295081967213116  0.01931818181818182  0.5972928580563558  1.0000
  As  As46      1.0  0.45114754098360654  0.020454545454545454  0.5903331929437433  1.0000
  As  As47      1.0  0.46491803278688526  0.020454545454545454  0.6071499008616701  1.0000
  As  As48      1.0  0.4931147540983607  0.01931818181818182  0.5950481616921017  1.0000
  As  As49      1.0  0.5062295081967213  0.01931818181818182  0.5964341093859201  1.0000
  As  As50      1.0  0.5344262295081967  0.020454545454545454  0.6039132212749346  1.0000
  As  As51      1.0  0.5481967213114755  0.020454545454545454  0.6008523490844271  1.0000
  As  As52      1.0  0.5763934426229509  0.01931818181818182  0.5962301627318652  1.0000
  As  As53      1.0  0.5895081967213115  0.01931818181818182  0.5927637422365563  1.0000
  As  As54      1.0  0.6177049180327869  0.020454545454545454  0.6094851523040132  1.0000
  As  As55      1.0  0.6314754098360656  0.020454545454545454  0.6013609975610321  1.0000
  As  As56      1.0  0.6596721311475411  0.01931818181818182  0.6019479768620212  1.0000
  As  As57      1.0  0.6727868852459017  0.01931818181818182  0.5930198411448137  1.0000
  As  As58      1.0  0.7016393442622951  0.020454545454545454  0.6022364380851479  1.0000
  As  As59      1.0  0.7147540983606557  0.020454545454545454  0.6092977851002447  1.0000
  As  As60      1.0  0.7429508196721312  0.01931818181818182  0.5938962911373696  1.0000
  As  As61      1.0  0.7560655737704919  0.01931818181818182  0.5956122875921012  1.0000
  As  As62      1.0  0.7849180327868852  0.020454545454545454  0.5951647473551122  1.0000
  As  As63      1.0  0.7980327868852459  0.020454545454545454  0.6036276417559732  1.0000
  As  As64      1.0  0.8262295081967214  0.01931818181818182  0.6066734996809626  1.0000
  As  As65      1.0  0.84  0.01931818181818182  0.5901549577261384  1.0000
  As  As66      1.0  0.8681967213114754  0.020454545454545454  0.5941499558596608  1.0000
  As  As67      1.0  0.8813114754098361  0.020454545454545454  0.6004119392279025  1.0000
  As  As68      1.0  0.9095081967213116  0.01931818181818182  0.5969717633932803  1.0000
  As  As69      1.0  0.9232786885245903  0.01931818181818182  0.6028767559676608  1.0000
  As  As70      1.0  0.9514754098360655  0.020454545454545454  0.6048024049577866  1.0000
  As  As71      1.0  0.9645901639344262  0.020454545454545454  0.6043981311257742  1.0000
  As  As72      1.0  0.9927868852459016  0.01931818181818182  0.603556565588712  1.0000
  Si  Si25      1.0  0.01377049197183064  0.04090909120118378  0.609901731337123  1.0000
  As  As73      1.0  0.02819672131147541  0.04090909090909091  0.6020646724673916  1.0000
  As  As74      1.0  0.05442622950819673  0.04090909090909091  0.606135879755676  1.0000
  Si  Si26      1.0  0.06885245918494541  0.04090909120118378  0.6018928528521195  1.0000
  Si  Si27      1.0  0.0970491804964208  0.04090909120118378  0.60600722343759  1.0000
  As  As75      1.0  0.11147540983606558  0.04090909090909091  0.5988310430134994  1.0000
  As  As76      1.0  0.13836065573770492  0.04090909090909091  0.5925207238550251  1.0000
  Si  Si28      1.0  0.15213114770953556  0.04090909120118378  0.6011344857588391  1.0000
  Si  Si29      1.0  0.18032786902101097  0.04090909120118378  0.5920109770636364  1.0000
  As  As77      1.0  0.19475409836065577  0.04090909090909091  0.6096774462135779  1.0000
  As  As78      1.0  0.22163934426229512  0.04090909090909091  0.6088216594807151  1.0000
  Si  Si30      1.0  0.23606557393904376  0.04090909120118378  0.6089968398404957  1.0000
  Si  Si31      1.0  0.26360655754560114  0.04090909120118378  0.6044694243083409  1.0000
  As  As79      1.0  0.27803278688524596  0.04090909090909091  0.592363768831995  1.0000
  As  As80      1.0  0.30491803278688523  0.04090909090909091  0.5928166405690061  1.0000
  Si  Si32      1.0  0.31934426246363395  0.04090909120118378  0.594900639597056  1.0000
  Si  Si33      1.0  0.3468852460701913  0.04090909120118378  0.5969317189410207  1.0000
  As  As81      1.0  0.36131147540983605  0.04090909090909091  0.5905202999214264  1.0000
  As  As82      1.0  0.3881967213114754  0.04090909090909091  0.5961619444215683  1.0000
  Si  Si34      1.0  0.4026229509882241  0.04090909120118378  0.5947352309691567  1.0000
  Si  Si35      1.0  0.43016393459478147  0.04090909120118378  0.5963948171324222  1.0000
  As  As83      1.0  0.4445901639344262  0.04090909090909091  0.5956790147159202  1.0000
  As  As84      1.0  0.4714754098360656  0.04090909090909091  0.604666447891618  1.0000
  Si  Si36      1.0  0.4859016395128143  0.04090909120118378  0.5936693750884825  1.0000
  Si  Si37      1.0  0.5134426231193716  0.04090909120118378  0.6037665674222912  1.0000
  As  As85      1.0  0.5278688524590164  0.04090909090909091  0.5964160147126963  1.0000
  As  As86      1.0  0.5547540983606558  0.04090909090909091  0.6075960272200425  1.0000
  Si  Si38      1.0  0.5691803280374045  0.04090909120118378  0.6088619713534  1.0000
  Si  Si39      1.0  0.5967213116439618  0.04090909120118378  0.606554249943763  1.0000
  As  As87      1.0  0.6111475409836066  0.04090909090909091  0.6092185905069156  1.0000
  As  As88      1.0  0.638032786885246  0.04090909090909091  0.5975783378396073  1.0000
  Si  Si40      1.0  0.6524590165619947  0.04090909120118378  0.6082889108123674  1.0000
  Si  Si41      1.0  0.6800000001685519  0.04090909120118378  0.6057928598894975  1.0000
  As  As89      1.0  0.6944262295081968  0.04090909090909091  0.6021502353816903  1.0000
  As  As90      1.0  0.7213114754098361  0.04090909090909091  0.6003900486607354  1.0000
  Si  Si42      1.0  0.7357377050865848  0.04090909120118378  0.6090892890311257  1.0000
  Si  Si43      1.0  0.7632786886931421  0.04090909120118378  0.5903214642830401  1.0000
  As  As91      1.0  0.777704918032787  0.04090909090909091  0.5921102741736156  1.0000
  As  As92      1.0  0.8045901639344263  0.04090909090909091  0.606162092427087  1.0000
  Si  Si44      1.0  0.819016393611175  0.04090909120118378  0.6009880534009787  1.0000
  Si  Si45      1.0  0.8472131149226502  0.04090909120118378  0.6089248786850008  1.0000
  As  As93      1.0  0.8609836065573772  0.04090909090909091  0.5924207073892483  1.0000
  As  As94      1.0  0.8878688524590165  0.04090909090909091  0.597018537369094  1.0000
  Si  Si46      1.0  0.902295082135765  0.04090909120118378  0.5936846172969988  1.0000
  Si  Si47      1.0  0.9304918034472405  0.04090909120118378  0.6073404964754259  1.0000
  As  As95      1.0  0.9449180327868852  0.04090909090909091  0.5998582698533429  1.0000
  As  As96      1.0  0.9711475409836066  0.04090909090909091  0.6091247007715275  1.0000
  Si  Si48      1.0  0.9855737706603552  0.04090909120118378  0.5955097080174133  1.0000
  As  As97      1.0  0.034754098360655745  0.06136363636363637  0.5954775990823914  1.0000
  As  As98      1.0  0.0478688524590164  0.06136363636363637  0.5976667319253264  1.0000
  As  As99      1.0  0.1180327868852459  0.06136363636363637  0.6060396409838275  1.0000
  As  As100     1.0  0.13114754098360656  0.06136363636363637  0.6070015681488393  1.0000
  As  As101     1.0  0.20131147540983607  0.06136363636363637  0.5947718299650627  1.0000
  As  As102     1.0  0.21442622950819673  0.06136363636363637  0.5941123617770055  1.0000
  As  As103     1.0  0.28459016393442627  0.06136363636363637  0.593428261749741  1.0000
  As  As104     1.0  0.2977049180327869  0.06136363636363637  0.6066136624876536  1.0000
  As  As105     1.0  0.3678688524590164  0.06136363636363637  0.5950138007359452  1.0000
  As  As106     1.0  0.3816393442622951  0.06136363636363637  0.5937946076405306  1.0000
  As  As107     1.0  0.45114754098360654  0.06136363636363637  0.6097475581919096  1.0000
  As  As108     1.0  0.46491803278688526  0.06136363636363637  0.5920211681738571  1.0000
  As  As109     1.0  0.5344262295081967  0.06136363636363637  0.6006610441777904  1.0000
  As  As110     1.0  0.5481967213114755  0.06136363636363637  0.5911368633625383  1.0000
  As  As111     1.0  0.6177049180327869  0.06136363636363637  0.6072066680123341  1.0000
  As  As112     1.0  0.6314754098360656  0.06136363636363637  0.5909787460060723  1.0000
  As  As113     1.0  0.7016393442622951  0.06136363636363637  0.5969691598171173  1.0000
  As  As114     1.0  0.7147540983606557  0.06136363636363637  0.6084056551856867  1.0000
  As  As115     1.0  0.7849180327868852  0.06136363636363637  0.5904754192841413  1.0000
  As  As116     1.0  0.7980327868852459  0.06136363636363637  0.6068789722415273  1.0000
  As  As117     1.0  0.8681967213114754  0.06136363636363637  0.5959553610498486  1.0000
  As  As118     1.0  0.8813114754098361  0.06136363636363637  0.5964076097508009  1.0000
  As  As119     1.0  0.9514754098360655  0.06136363636363637  0.5935369081613115  1.0000
  As  As120     1.0  0.9645901639344262  0.06136363636363637  0.5951409862103689  1.0000
  As  As121     1.0  0.006557377049180328  0.0625  0.6083171651173503  1.0000
  As  As122     1.0  0.0760655737704918  0.0625  0.6057797852344783  1.0000
  As  As123     1.0  0.0898360655737705  0.0625  0.5902056728101714  1.0000
  As  As124     1.0  0.15934426229508197  0.0625  0.6089490579173712  1.0000
  As  As125     1.0  0.17311475409836066  0.0625  0.605481627181495  1.0000
  As  As126     1.0  0.24327868852459017  0.0625  0.5972767487027283  1.0000
  As  As127     1.0  0.25639344262295083  0.0625  0.6074661137262098  1.0000
  As  As128     1.0  0.32655737704918036  0.0625  0.6044932843193124  1.0000
  As  As129     1.0  0.339672131147541  0.0625  0.6073548564275963  1.0000
  As  As130     1.0  0.4098360655737705  0.0625  0.6043325565405886  1.0000
  As  As131     1.0  0.42295081967213116  0.0625  0.5907460091528455  1.0000
  As  As132     1.0  0.4931147540983607  0.0625  0.5918753643598547  1.0000
  As  As133     1.0  0.5062295081967213  0.0625  0.609165670590399  1.0000
  As  As134     1.0  0.5763934426229509  0.0625  0.6068257700123355  1.0000
  As  As135     1.0  0.5895081967213115  0.0625  0.5922582416277381  1.0000
  As  As136     1.0  0.6596721311475411  0.0625  0.5939109504640759  1.0000
  As  As137     1.0  0.6727868852459017  0.0625  0.6094723881327684  1.0000
  As  As138     1.0  0.7429508196721312  0.0625  0.6026769006753953  1.0000
  As  As139     1.0  0.7560655737704919  0.0625  0.5986560782330077  1.0000
  As  As140     1.0  0.8262295081967214  0.0625  0.5902765425530975  1.0000
  As  As141     1.0  0.84  0.0625  0.6049169752619501  1.0000
  As  As142     1.0  0.9095081967213116  0.0625  0.6006349246074469  1.0000
  As  As143     1.0  0.9232786885245903  0.0625  0.5948168166070816  1.0000
  As  As144     1.0  0.9927868852459016  0.0625  0.6086778725114407  1.0000
  As  As145     1.0  0.013114754098360656  0.08295454545454546  0.59381192009275  1.0000
  Si  Si49      1.0  0.027540983775109332  0.08295454574663834  0.5925205350439045  1.0000
  Si  Si50      1.0  0.05508196738166671  0.08295454574663834  0.5975428588408633  1.0000
  As  As146     1.0  0.06950819672131149  0.08295454545454546  0.6066081096964129  1.0000
  As  As147     1.0  0.09639344262295083  0.08295454545454546  0.6093289732721443  1.0000
  Si  Si51      1.0  0.1108196722996995  0.08295454574663834  0.6054940984015723  1.0000
  Si  Si52      1.0  0.1383606559062569  0.08295454574663834  0.6021898046069509  1.0000
  As  As148     1.0  0.15278688524590164  0.08295454545454546  0.6092775051046875  1.0000
  As  As149     1.0  0.179672131147541  0.08295454545454546  0.5914526291789803  1.0000
  Si  Si53      1.0  0.1940983608242897  0.08295454574663834  0.6084822540680312  1.0000
  Si  Si54      1.0  0.22163934443084704  0.08295454574663834  0.6091006264261384  1.0000
  As  As150     1.0  0.2360655737704918  0.08295454545454546  0.6071676621370082  1.0000
  As  As151     1.0  0.26295081967213113  0.08295454545454546  0.5928416480586985  1.0000
  Si  Si55      1.0  0.27737704934887986  0.08295454574663834  0.6060251497542917  1.0000
  Si  Si56      1.0  0.30491803295543723  0.08295454574663834  0.6011150603590301  1.0000
  As  As152     1.0  0.319344262295082  0.08295454545454546  0.5948603453527891  1.0000
  As  As153     1.0  0.3462295081967213  0.08295454545454546  0.5964050984663211  1.0000
  Si  Si57      1.0  0.36065573787347  0.08295454574663834  0.6080533698136859  1.0000
  Si  Si58      1.0  0.38885245918494543  0.08295454574663834  0.6043228104072836  1.0000
  As  As154     1.0  0.40327868852459015  0.08295454545454546  0.5953438671761314  1.0000
  As  As155     1.0  0.42950819672131146  0.08295454545454546  0.5974080126952637  1.0000
  Si  Si59      1.0  0.44393442639806013  0.08295454574663834  0.6014012514645286  1.0000
  Si  Si60      1.0  0.4721311477095356  0.08295454574663834  0.6005663092389213  1.0000
  As  As156     1.0  0.48655737704918034  0.08295454545454546  0.5969140133183702  1.0000
  As  As157     1.0  0.5127868852459017  0.08295454545454546  0.601938284442288  1.0000
  Si  Si61      1.0  0.5272131149226503  0.08295454574663834  0.6025987667138897  1.0000
  Si  Si62      1.0  0.5554098362341258  0.08295454574663834  0.5971141596710257  1.0000
  As  As158     1.0  0.5698360655737705  0.08295454545454546  0.6070898518841515  1.0000
  As  As159     1.0  0.5960655737704919  0.08295454545454546  0.5924961806131401  1.0000
  Si  Si63      1.0  0.6104918034472405  0.08295454574663834  0.602814008380017  1.0000
  Si  Si64      1.0  0.6386885247587158  0.08295454574663834  0.6058672251704587  1.0000
  As  As160     1.0  0.6531147540983607  0.08295454545454546  0.6090529687054792  1.0000
  As  As161     1.0  0.68  0.08295454545454546  0.6056609267176736  1.0000
  Si  Si65      1.0  0.6944262296767487  0.08295454574663834  0.6052358925425705  1.0000
  Si  Si66      1.0  0.7219672132833059  0.08295454574663834  0.6052581349043837  1.0000
  As  As162     1.0  0.7363934426229509  0.08295454545454546  0.6026593881260416  1.0000
  As  As163     1.0  0.7632786885245902  0.08295454545454546  0.6052285420827137  1.0000
  Si  Si67      1.0  0.7777049182013388  0.08295454574663834  0.5905374096161079  1.0000
  Si  Si68      1.0  0.8052459018078961  0.08295454574663834  0.6083450616557808  1.0000
  As  As164     1.0  0.819672131147541  0.08295454545454546  0.5941904288620968  1.0000
  As  As165     1.0  0.8465573770491803  0.08295454545454546  0.599042035955867  1.0000
  Si  Si69      1.0  0.860983606725929  0.08295454574663834  0.6094779507804445  1.0000
  Si  Si70      1.0  0.8885245903324863  0.08295454574663834  0.5989499069824537  1.0000
  As  As166     1.0  0.9029508196721313  0.08295454545454546  0.596700234765609  1.0000
  As  As167     1.0  0.9298360655737705  0.08295454545454546  0.5951974469858471  1.0000
  Si  Si71      1.0  0.9442622952505191  0.08295454574663834  0.5976170617552503  1.0000
  Si  Si72      1.0  0.9718032788570764  0.08295454574663834  0.604363325578715  1.0000
  As  As168     1.0  0.9862295081967214  0.08295454545454546  0.6044914915087586  1.0000
  As  As169     1.0  0.006557377049180328  0.10340909090909091  0.5941279193164759  1.0000
  As  As170     1.0  0.034754098360655745  0.10454545454545457  0.5981112023353309  1.0000
  As  As171     1.0  0.0478688524590164  0.10454545454545457  0.6054301456510025  1.0000
  As  As172     1.0  0.0760655737704918  0.10340909090909091  0.5987839529489511  1.0000
  As  As173     1.0  0.0898360655737705  0.10340909090909091  0.6086408603087505  1.0000
  As  As174     1.0  0.1180327868852459  0.10454545454545457  0.5963386323861722  1.0000
  As  As175     1.0  0.13114754098360656  0.10454545454545457  0.5900051991604839  1.0000
  As  As176     1.0  0.15934426229508197  0.10340909090909091  0.5917586973385628  1.0000
  As  As177     1.0  0.17311475409836066  0.10340909090909091  0.5991071181029614  1.0000
  As  As178     1.0  0.20131147540983607  0.10454545454545457  0.6025454999200468  1.0000
  As  As179     1.0  0.21442622950819673  0.10454545454545457  0.5986487215043252  1.0000
  As  As180     1.0  0.24327868852459017  0.10340909090909091  0.5989575263240414  1.0000
  As  As181     1.0  0.25639344262295083  0.10340909090909091  0.6083968267322537  1.0000
  As  As182     1.0  0.28459016393442627  0.10454545454545457  0.5987633370408281  1.0000
  As  As183     1.0  0.2977049180327869  0.10454545454545457  0.6084573833536869  1.0000
  As  As184     1.0  0.32655737704918036  0.10340909090909091  0.6026767524520971  1.0000
  As  As185     1.0  0.339672131147541  0.10340909090909091  0.5900505727593991  1.0000
  As  As186     1.0  0.3678688524590164  0.10454545454545457  0.5982863685941385  1.0000
  As  As187     1.0  0.3816393442622951  0.10454545454545457  0.591078421024572  1.0000
  As  As188     1.0  0.4098360655737705  0.10340909090909091  0.6071358477737955  1.0000
  As  As189     1.0  0.42295081967213116  0.10340909090909091  0.6067934110482618  1.0000
  As  As190     1.0  0.45114754098360654  0.10454545454545457  0.6013142475395702  1.0000
  As  As191     1.0  0.46491803278688526  0.10454545454545457  0.5912370727712066  1.0000
  As  As192     1.0  0.4931147540983607  0.10340909090909091  0.6012853668826053  1.0000
  As  As193     1.0  0.5062295081967213  0.10340909090909091  0.6033032415790192  1.0000
  As  As194     1.0  0.5344262295081967  0.10454545454545457  0.5976617615541018  1.0000
  As  As195     1.0  0.5481967213114755  0.10454545454545457  0.6010958295279686  1.0000
  As  As196     1.0  0.5763934426229509  0.10340909090909091  0.5987118547344833  1.0000
  As  As197     1.0  0.5895081967213115  0.10340909090909091  0.5905428240175842  1.0000
  As  As198     1.0  0.6177049180327869  0.10454545454545457  0.6020953751061299  1.0000
  As  As199     1.0  0.6314754098360656  0.10454545454545457  0.6087846945777703  1.0000
  As  As200     1.0  0.6596721311475411  0.10340909090909091  0.6033443266986455  1.0000
  As  As201     1.0  0.6727868852459017  0.10340909090909091  0.6046011798395926  1.0000
  As  As202     1.0  0.7016393442622951  0.10454545454545457  0.6003641968796002  1.0000
  As  As203     1.0  0.7147540983606557  0.10454545454545457  0.6017813844592581  1.0000
  As  As204     1.0  0.7429508196721312  0.10340909090909091  0.5991706175378668  1.0000
  As  As205     1.0  0.7560655737704919  0.10340909090909091  0.595695040296328  1.0000
  As  As206     1.0  0.7849180327868852  0.10454545454545457  0.6071023787623953  1.0000
  As  As207     1.0  0.7980327868852459  0.10454545454545457  0.5960064784296292  1.0000
  As  As208     1.0  0.8262295081967214  0.10340909090909091  0.594064787121795  1.0000
  As  As209     1.0  0.84  0.10340909090909091  0.5933508936526822  1.0000
  As  As210     1.0  0.8681967213114754  0.10454545454545457  0.5914766624436315  1.0000
  As  As211     1.0  0.8813114754098361  0.10454545454545457  0.606781230146675  1.0000
  As  As212     1.0  0.9095081967213116  0.10340909090909091  0.6002514764279053  1.0000
  As  As213     1.0  0.9232786885245903  0.10340909090909091  0.6002628075945243  1.0000
  As  As214     1.0  0.9514754098360655  0.10454545454545457  0.5996984268163915  1.0000
  As  As215     1.0  0.9645901639344262  0.10454545454545457  0.6054485635358307  1.0000
  As  As216     1.0  0.9927868852459016  0.10340909090909091  0.5959248576403168  1.0000
  Si  Si73      1.0  0.01377049197183064  0.1250000002920929  0.592462569733961  1.0000
  As  As217     1.0  0.02819672131147541  0.125  0.5904355940399133  1.0000
  As  As218     1.0  0.05442622950819673  0.125  0.5900322532491223  1.0000
  Si  Si74      1.0  0.06885245918494541  0.1250000002920929  0.6002559117177854  1.0000
  Si  Si75      1.0  0.0970491804964208  0.1250000002920929  0.6091585688990664  1.0000
  As  As219     1.0  0.11147540983606558  0.125  0.6018343502731686  1.0000
  As  As220     1.0  0.13836065573770492  0.125  0.6031058506729989  1.0000
  Si  Si76      1.0  0.15213114770953556  0.1250000002920929  0.5980894771030807  1.0000
  Si  Si77      1.0  0.18032786902101097  0.1250000002920929  0.5937587455914359  1.0000
  As  As221     1.0  0.19475409836065577  0.125  0.6085462677237854  1.0000
  As  As222     1.0  0.22163934426229512  0.125  0.5971025249045274  1.0000
  Si  Si78      1.0  0.23606557393904376  0.1250000002920929  0.6077794162699433  1.0000
  Si  Si79      1.0  0.26360655754560114  0.1250000002920929  0.5983773558576431  1.0000
  As  As223     1.0  0.27803278688524596  0.125  0.5922188987107568  1.0000
  As  As224     1.0  0.30491803278688523  0.125  0.6036671873323064  1.0000
  Si  Si80      1.0  0.31934426246363395  0.1250000002920929  0.6052147152706007  1.0000
  Si  Si81      1.0  0.3468852460701913  0.1250000002920929  0.5992723131299023  1.0000
  As  As225     1.0  0.36131147540983605  0.125  0.590233546721637  1.0000
  As  As226     1.0  0.3881967213114754  0.125  0.5961497546861668  1.0000
  Si  Si82      1.0  0.4026229509882241  0.1250000002920929  0.6091718876285446  1.0000
  Si  Si83      1.0  0.43016393459478147  0.1250000002920929  0.5938211808734637  1.0000
  As  As227     1.0  0.4445901639344262  0.125  0.6043429660856907  1.0000
  As  As228     1.0  0.4714754098360656  0.125  0.5967491521267823  1.0000
  Si  Si84      1.0  0.4859016395128143  0.1250000002920929  0.5972013650050443  1.0000
  Si  Si85      1.0  0.5134426231193716  0.1250000002920929  0.6002282826331938  1.0000
  As  As229     1.0  0.5278688524590164  0.125  0.6009169632364323  1.0000
  As  As230     1.0  0.5547540983606558  0.125  0.6009883150402172  1.0000
  Si  Si86      1.0  0.5691803280374045  0.1250000002920929  0.591038998421014  1.0000
  Si  Si87      1.0  0.5967213116439618  0.1250000002920929  0.5933276099078506  1.0000
  As  As231     1.0  0.6111475409836066  0.125  0.6097942606914626  1.0000
  As  As232     1.0  0.638032786885246  0.125  0.5930720233310143  1.0000
  Si  Si88      1.0  0.6524590165619947  0.1250000002920929  0.5961592504453245  1.0000
  Si  Si89      1.0  0.6800000001685519  0.1250000002920929  0.6002182543024209  1.0000
  As  As233     1.0  0.6944262295081968  0.125  0.5946157876222801  1.0000
  As  As234     1.0  0.7213114754098361  0.125  0.6006223381851156  1.0000
  Si  Si90      1.0  0.7357377050865848  0.1250000002920929  0.593612504222771  1.0000
  Si  Si91      1.0  0.7632786886931421  0.1250000002920929  0.5976126925204172  1.0000
  As  As235     1.0  0.777704918032787  0.125  0.6057876175447279  1.0000
  As  As236     1.0  0.8045901639344263  0.125  0.5911342541900177  1.0000
  Si  Si92      1.0  0.819016393611175  0.1250000002920929  0.6033440204202659  1.0000
  Si  Si93      1.0  0.8472131149226502  0.1250000002920929  0.6041367751685789  1.0000
  As  As237     1.0  0.8609836065573772  0.125  0.593058770010149  1.0000
  As  As238     1.0  0.8878688524590165  0.125  0.5962914492201568  1.0000
  Si  Si94      1.0  0.902295082135765  0.1250000002920929  0.5986529629344985  1.0000
  Si  Si95      1.0  0.9304918034472405  0.1250000002920929  0.6065623888937444  1.0000
  As  As239     1.0  0.9449180327868852  0.125  0.6030886026840474  1.0000
  As  As240     1.0  0.9711475409836066  0.125  0.6070576007650843  1.0000
  Si  Si96      1.0  0.9855737706603552  0.1250000002920929  0.6066523279770138  1.0000
  As  As241     1.0  0.006557377049180328  0.14545454545454548  0.605027483745376  1.0000
  As  As242     1.0  0.034754098360655745  0.14431818181818185  0.6095711201750845  1.0000
  As  As243     1.0  0.0478688524590164  0.14431818181818185  0.603354981975096  1.0000
  As  As244     1.0  0.0760655737704918  0.14545454545454548  0.6074509093737668  1.0000
  As  As245     1.0  0.0898360655737705  0.14545454545454548  0.6021418998032857  1.0000
  As  As246     1.0  0.1180327868852459  0.14431818181818185  0.602628436718555  1.0000
  As  As247     1.0  0.13114754098360656  0.14431818181818185  0.6054555517628925  1.0000
  As  As248     1.0  0.15934426229508197  0.14545454545454548  0.5959683158973198  1.0000
  As  As249     1.0  0.17311475409836066  0.14545454545454548  0.6023777717530371  1.0000
  As  As250     1.0  0.20131147540983607  0.14431818181818185  0.6055526211339404  1.0000
  As  As251     1.0  0.21442622950819673  0.14431818181818185  0.5993912820405318  1.0000
  As  As252     1.0  0.24327868852459017  0.14545454545454548  0.5919623656644265  1.0000
  As  As253     1.0  0.25639344262295083  0.14545454545454548  0.5901360337121614  1.0000
  As  As254     1.0  0.28459016393442627  0.14431818181818185  0.6075275276523217  1.0000
  As  As255     1.0  0.2977049180327869  0.14431818181818185  0.6052079805758037  1.0000
  As  As256     1.0  0.32655737704918036  0.14545454545454548  0.5954670161493179  1.0000
  As  As257     1.0  0.339672131147541  0.14545454545454548  0.5980777869816061  1.0000
  As  As258     1.0  0.3678688524590164  0.14431818181818185  0.6005740317951416  1.0000
  As  As259     1.0  0.3816393442622951  0.14431818181818185  0.5934046945251311  1.0000
  As  As260     1.0  0.4098360655737705  0.14545454545454548  0.5912952484096995  1.0000
  As  As261     1.0  0.42295081967213116  0.14545454545454548  0.6028961755745339  1.0000
  As  As262     1.0  0.45114754098360654  0.14431818181818185  0.5969493506537911  1.0000
  As  As263     1.0  0.46491803278688526  0.14431818181818185  0.6052888194723778  1.0000
  As  As264     1.0  0.4931147540983607  0.14545454545454548  0.6019153605828761  1.0000
  As  As265     1.0  0.5062295081967213  0.14545454545454548  0.6017216151741079  1.0000
  As  As266     1.0  0.5344262295081967  0.14431818181818185  0.5981809463450499  1.0000
  As  As267     1.0  0.5481967213114755  0.14431818181818185  0.6047532286170528  1.0000
  As  As268     1.0  0.5763934426229509  0.14545454545454548  0.6002784370604934  1.0000
  As  As269     1.0  0.5895081967213115  0.14545454545454548  0.5901938221783141  1.0000
  As  As270     1.0  0.6177049180327869  0.14431818181818185  0.6008434265590552  1.0000
  As  As271     1.0  0.6314754098360656  0.14431818181818185  0.6087504917176066  1.0000
  As  As272     1.0  0.6596721311475411  0.14545454545454548  0.5911313957857856  1.0000
  As  As273     1.0  0.6727868852459017  0.14545454545454548  0.599256851602579  1.0000
  As  As274     1.0  0.7016393442622951  0.14431818181818185  0.5959763849591194  1.0000
  As  As275     1.0  0.7147540983606557  0.14431818181818185  0.5934626385001348  1.0000
  As  As276     1.0  0.7429508196721312  0.14545454545454548  0.6045533127767021  1.0000
  As  As277     1.0  0.7560655737704919  0.14545454545454548  0.6037528593249107  1.0000
  As  As278     1.0  0.7849180327868852  0.14431818181818185  0.5994347093136178  1.0000
  As  As279     1.0  0.7980327868852459  0.14431818181818185  0.5942175394775436  1.0000
  As  As280     1.0  0.8262295081967214  0.14545454545454548  0.6029380170623199  1.0000
  As  As281     1.0  0.84  0.14545454545454548  0.6091623625131567  1.0000
  As  As282     1.0  0.8681967213114754  0.14431818181818185  0.5924239922829457  1.0000
  As  As283     1.0  0.8813114754098361  0.14431818181818185  0.6083987519209848  1.0000
  As  As284     1.0  0.9095081967213116  0.14545454545454548  0.5910618386745111  1.0000
  As  As285     1.0  0.9232786885245903  0.14545454545454548  0.5939768224228863  1.0000
  As  As286     1.0  0.9514754098360655  0.14431818181818185  0.5968670091924096  1.0000
  As  As287     1.0  0.9645901639344262  0.14431818181818185  0.5919073213588872  1.0000
  As  As288     1.0  0.9927868852459016  0.14545454545454548  0.6002590063673737  1.0000
  As  As289     1.0  0.013114754098360656  0.16590909090909092  0.6044218722010068  1.0000
  Si  Si97      1.0  0.027540983775109332  0.1659090912011838  0.6002312166859665  1.0000
  Si  Si98      1.0  0.05508196738166671  0.1659090912011838  0.6009214404503203  1.0000
  As  As290     1.0  0.06950819672131149  0.16590909090909092  0.5965192291296342  1.0000
  As  As291     1.0  0.09639344262295083  0.16590909090909092  0.6038428650887391  1.0000
  Si  Si99      1.0  0.1108196722996995  0.1659090912011838  0.5999500906714937  1.0000
  Si  Si100     1.0  0.1383606559062569  0.1659090912011838  0.5929592356330338  1.0000
  As  As292     1.0  0.15278688524590164  0.16590909090909092  0.6068861230429636  1.0000
  As  As293     1.0  0.179672131147541  0.16590909090909092  0.5970553078110238  1.0000
  Si  Si101     1.0  0.1940983608242897  0.1659090912011838  0.6083963179858953  1.0000
  Si  Si102     1.0  0.22163934443084704  0.1659090912011838  0.609137936382261  1.0000
  As  As294     1.0  0.2360655737704918  0.16590909090909092  0.6088194676202623  1.0000
  As  As295     1.0  0.26295081967213113  0.16590909090909092  0.605400597095425  1.0000
  Si  Si103     1.0  0.27737704934887986  0.1659090912011838  0.5968222970449165  1.0000
  Si  Si104     1.0  0.30491803295543723  0.1659090912011838  0.6002825130863925  1.0000
  As  As296     1.0  0.319344262295082  0.16590909090909092  0.6027032526865089  1.0000
  As  As297     1.0  0.3462295081967213  0.16590909090909092  0.6030004378173363  1.0000
  Si  Si105     1.0  0.36065573787347  0.1659090912011838  0.597649899228648  1.0000
  Si  Si106     1.0  0.38885245918494543  0.1659090912011838  0.5975270340622266  1.0000
  As  As298     1.0  0.40327868852459015  0.16590909090909092  0.5927501993896093  1.0000
  As  As299     1.0  0.42950819672131146  0.16590909090909092  0.5921062395303104  1.0000
  Si  Si107     1.0  0.44393442639806013  0.1659090912011838  0.5968790465365311  1.0000
  Si  Si108     1.0  0.4721311477095356  0.1659090912011838  0.5900336125895476  1.0000
  As  As300     1.0  0.48655737704918034  0.16590909090909092  0.5903682879664461  1.0000
  As  As301     1.0  0.5127868852459017  0.16590909090909092  0.5993557811113815  1.0000
  Si  Si109     1.0  0.5272131149226503  0.1659090912011838  0.5906338511722525  1.0000
  Si  Si110     1.0  0.5554098362341258  0.1659090912011838  0.5915468651665018  1.0000
  As  As302     1.0  0.5698360655737705  0.16590909090909092  0.5912436620037239  1.0000
  As  As303     1.0  0.5960655737704919  0.16590909090909092  0.5939233153043296  1.0000
  Si  Si111     1.0  0.6104918034472405  0.1659090912011838  0.5920741764457168  1.0000
  Si  Si112     1.0  0.6386885247587158  0.1659090912011838  0.5969920506765684  1.0000
  As  As304     1.0  0.6531147540983607  0.16590909090909092  0.5997413287200581  1.0000
  As  As305     1.0  0.68  0.16590909090909092  0.6075405318723069  1.0000
  Si  Si113     1.0  0.6944262296767487  0.1659090912011838  0.5929513277408343  1.0000
  Si  Si114     1.0  0.7219672132833059  0.1659090912011838  0.6088797699981572  1.0000
  As  As306     1.0  0.7363934426229509  0.16590909090909092  0.5931089459613368  1.0000
  As  As307     1.0  0.7632786885245902  0.16590909090909092  0.5907444559443852  1.0000
  Si  Si115     1.0  0.7777049182013388  0.1659090912011838  0.5915713628494043  1.0000
  Si  Si116     1.0  0.8052459018078961  0.1659090912011838  0.6038718610713737  1.0000
  As  As308     1.0  0.819672131147541  0.16590909090909092  0.5901962969443935  1.0000
  As  As309     1.0  0.8465573770491803  0.16590909090909092  0.604334974725484  1.0000
  Si  Si117     1.0  0.860983606725929  0.1659090912011838  0.5908354323596144  1.0000
  Si  Si118     1.0  0.8885245903324863  0.1659090912011838  0.6000450243968877  1.0000
  As  As310     1.0  0.9029508196721313  0.16590909090909092  0.6072282907264329  1.0000
  As  As311     1.0  0.9298360655737705  0.16590909090909092  0.5986814247322577  1.0000
  Si  Si119     1.0  0.9442622952505191  0.1659090912011838  0.5930175932316168  1.0000
  Si  Si120     1.0  0.9718032788570764  0.1659090912011838  0.5980565599311571  1.0000
  As  As312     1.0  0.9862295081967214  0.16590909090909092  0.5948675215060729  1.0000
  As  As313     1.0  0.006557377049180328  0.1863636363636364  0.5923269609810771  1.0000
  As  As314     1.0  0.0760655737704918  0.1863636363636364  0.6000113777322664  1.0000
  As  As315     1.0  0.0898360655737705  0.1863636363636364  0.5950864167919061  1.0000
  As  As316     1.0  0.15934426229508197  0.1863636363636364  0.5936943375539129  1.0000
  As  As317     1.0  0.17311475409836066  0.1863636363636364  0.6068090595300681  1.0000
  As  As318     1.0  0.24327868852459017  0.1863636363636364  0.6009274418307952  1.0000
  As  As319     1.0  0.25639344262295083  0.1863636363636364  0.6045615034304377  1.0000
  As  As320     1.0  0.32655737704918036  0.1863636363636364  0.5987050889154055  1.0000
  As  As321     1.0  0.339672131147541  0.1863636363636364  0.602531373812575  1.0000
  As  As322     1.0  0.4098360655737705  0.1863636363636364  0.590483369251401  1.0000
  As  As323     1.0  0.42295081967213116  0.1863636363636364  0.6047005485774815  1.0000
  As  As324     1.0  0.4931147540983607  0.1863636363636364  0.6060156250529197  1.0000
  As  As325     1.0  0.5062295081967213  0.1863636363636364  0.608269854569848  1.0000
  As  As326     1.0  0.5763934426229509  0.1863636363636364  0.5955367115913819  1.0000
  As  As327     1.0  0.5895081967213115  0.1863636363636364  0.6035816216599432  1.0000
  As  As328     1.0  0.6596721311475411  0.1863636363636364  0.6011958955414728  1.0000
  As  As329     1.0  0.6727868852459017  0.1863636363636364  0.608553180375352  1.0000
  As  As330     1.0  0.7429508196721312  0.1863636363636364  0.6070287661419513  1.0000
  As  As331     1.0  0.7560655737704919  0.1863636363636364  0.6077505616314407  1.0000
  As  As332     1.0  0.8262295081967214  0.1863636363636364  0.5980345007864083  1.0000
  As  As333     1.0  0.84  0.1863636363636364  0.6033114367093881  1.0000
  As  As334     1.0  0.9095081967213116  0.1863636363636364  0.5985468374890122  1.0000
  As  As335     1.0  0.9232786885245903  0.1863636363636364  0.6050365954652293  1.0000
  As  As336     1.0  0.9927868852459016  0.1863636363636364  0.6060784403115798  1.0000
  As  As337     1.0  0.034754098360655745  0.1875  0.5995969414521235  1.0000
  As  As338     1.0  0.0478688524590164  0.1875  0.6022940595783952  1.0000
  As  As339     1.0  0.1180327868852459  0.1875  0.6038158427588856  1.0000
  As  As340     1.0  0.13114754098360656  0.1875  0.5928066831447187  1.0000
  As  As341     1.0  0.20131147540983607  0.1875  0.5949531003299081  1.0000
  As  As342     1.0  0.21442622950819673  0.1875  0.6028340437421074  1.0000
  As  As343     1.0  0.28459016393442627  0.1875  0.6063122927658712  1.0000
  As  As344     1.0  0.2977049180327869  0.1875  0.5944361041041275  1.0000
  As  As345     1.0  0.3678688524590164  0.1875  0.6022008203887453  1.0000
  As  As346     1.0  0.3816393442622951  0.1875  0.6038785465072617  1.0000
  As  As347     1.0  0.45114754098360654  0.1875  0.6055401271114178  1.0000
  As  As348     1.0  0.46491803278688526  0.1875  0.5943776713018777  1.0000
  As  As349     1.0  0.5344262295081967  0.1875  0.5911417747739448  1.0000
  As  As350     1.0  0.5481967213114755  0.1875  0.5959926030255921  1.0000
  As  As351     1.0  0.6177049180327869  0.1875  0.5954023920023522  1.0000
  As  As352     1.0  0.6314754098360656  0.1875  0.5912361830811875  1.0000
  As  As353     1.0  0.7016393442622951  0.1875  0.607844260018006  1.0000
  As  As354     1.0  0.7147540983606557  0.1875  0.6089602796565509  1.0000
  As  As355     1.0  0.7849180327868852  0.1875  0.5910756765014706  1.0000
  As  As356     1.0  0.7980327868852459  0.1875  0.6084649842052097  1.0000
  As  As357     1.0  0.8681967213114754  0.1875  0.6054765823032524  1.0000
  As  As358     1.0  0.8813114754098361  0.1875  0.6051245779421928  1.0000
  As  As359     1.0  0.9514754098360655  0.1875  0.6015231584112783  1.0000
  As  As360     1.0  0.9645901639344262  0.1875  0.5925641732251234  1.0000
  Si  Si121     1.0  0.01377049197183064  0.20795454574663835  0.6092549377882581  1.0000
  As  As361     1.0  0.02819672131147541  0.20795454545454548  0.6080815389968328  1.0000
  As  As362     1.0  0.05442622950819673  0.20795454545454548  0.5923351349351064  1.0000
  Si  Si122     1.0  0.06885245918494541  0.20795454574663835  0.5982602367219215  1.0000
  Si  Si123     1.0  0.0970491804964208  0.20795454574663835  0.5961330130655859  1.0000
  As  As363     1.0  0.11147540983606558  0.20795454545454548  0.6055682799888595  1.0000
  As  As364     1.0  0.13836065573770492  0.20795454545454548  0.6061643358907243  1.0000
  Si  Si124     1.0  0.15213114770953556  0.20795454574663835  0.6053609197321874  1.0000
  Si  Si125     1.0  0.18032786902101097  0.20795454574663835  0.6076584860270966  1.0000
  As  As365     1.0  0.19475409836065577  0.20795454545454548  0.5991430554876725  1.0000
  As  As366     1.0  0.22163934426229512  0.20795454545454548  0.5993514808128458  1.0000
  Si  Si126     1.0  0.23606557393904376  0.20795454574663835  0.5976954776581425  1.0000
  Si  Si127     1.0  0.26360655754560114  0.20795454574663835  0.5956707630178892  1.0000
  As  As367     1.0  0.27803278688524596  0.20795454545454548  0.5933872271951264  1.0000
  As  As368     1.0  0.30491803278688523  0.20795454545454548  0.5915546070622987  1.0000
  Si  Si128     1.0  0.31934426246363395  0.20795454574663835  0.5952641580662705  1.0000
  Si  Si129     1.0  0.3468852460701913  0.20795454574663835  0.607115688145368  1.0000
  As  As369     1.0  0.36131147540983605  0.20795454545454548  0.60318242856137  1.0000
  As  As370     1.0  0.3881967213114754  0.20795454545454548  0.5940841481502291  1.0000
  Si  Si130     1.0  0.4026229509882241  0.20795454574663835  0.6028597541745884  1.0000
  Si  Si131     1.0  0.43016393459478147  0.20795454574663835  0.5993629389347938  1.0000
  As  As371     1.0  0.4445901639344262  0.20795454545454548  0.5905438926284118  1.0000
  As  As372     1.0  0.4714754098360656  0.20795454545454548  0.6001271520790952  1.0000
  Si  Si132     1.0  0.4859016395128143  0.20795454574663835  0.5920389514762693  1.0000
  Si  Si133     1.0  0.5134426231193716  0.20795454574663835  0.5939595387783221  1.0000
  As  As373     1.0  0.5278688524590164  0.20795454545454548  0.6048796897593456  1.0000
  As  As374     1.0  0.5547540983606558  0.20795454545454548  0.6063304751447164  1.0000
  Si  Si134     1.0  0.5691803280374045  0.20795454574663835  0.5978396438574868  1.0000
  Si  Si135     1.0  0.5967213116439618  0.20795454574663835  0.6078433021127762  1.0000
  As  As375     1.0  0.6111475409836066  0.20795454545454548  0.6000362267706595  1.0000
  As  As376     1.0  0.638032786885246  0.20795454545454548  0.6054609772690922  1.0000
  Si  Si136     1.0  0.6524590165619947  0.20795454574663835  0.5980300238408194  1.0000
  Si  Si137     1.0  0.6800000001685519  0.20795454574663835  0.5952180210900766  1.0000
  As  As377     1.0  0.6944262295081968  0.20795454545454548  0.6028721818526286  1.0000
  As  As378     1.0  0.7213114754098361  0.20795454545454548  0.5943557225727194  1.0000
  Si  Si138     1.0  0.7357377050865848  0.20795454574663835  0.6054870393725775  1.0000
  Si  Si139     1.0  0.7632786886931421  0.20795454574663835  0.5917677062254086  1.0000
  As  As379     1.0  0.777704918032787  0.20795454545454548  0.6093103744947097  1.0000
  As  As380     1.0  0.8045901639344263  0.20795454545454548  0.6078575070661859  1.0000
  Si  Si140     1.0  0.819016393611175  0.20795454574663835  0.5945920002835051  1.0000
  Si  Si141     1.0  0.8472131149226502  0.20795454574663835  0.6024115926282317  1.0000
  As  As381     1.0  0.8609836065573772  0.20795454545454548  0.5947983498244939  1.0000
  As  As382     1.0  0.8878688524590165  0.20795454545454548  0.5998689818195909  1.0000
  Si  Si142     1.0  0.902295082135765  0.20795454574663835  0.6014348752739569  1.0000
  Si  Si143     1.0  0.9304918034472405  0.20795454574663835  0.6074471200537306  1.0000
  As  As383     1.0  0.9449180327868852  0.20795454545454548  0.6019292668828362  1.0000
  As  As384     1.0  0.9711475409836066  0.20795454545454548  0.6094378292382848  1.0000
  Si  Si144     1.0  0.9855737706603552  0.20795454574663835  0.5928616229057065  1.0000
  As  As385     1.0  0.006557377049180328  0.22954545454545458  0.5932343177541565  1.0000
  As  As386     1.0  0.034754098360655745  0.22840909090909092  0.5978010622293922  1.0000
  As  As387     1.0  0.0478688524590164  0.22840909090909092  0.5925143262570601  1.0000
  As  As388     1.0  0.0760655737704918  0.22954545454545458  0.5965269592827461  1.0000
  As  As389     1.0  0.0898360655737705  0.22954545454545458  0.6069574685632854  1.0000
  As  As390     1.0  0.1180327868852459  0.22840909090909092  0.5980660540739108  1.0000
  As  As391     1.0  0.13114754098360656  0.22840909090909092  0.5924309527772751  1.0000
  As  As392     1.0  0.15934426229508197  0.22954545454545458  0.5930109126066666  1.0000
  As  As393     1.0  0.17311475409836066  0.22954545454545458  0.5920735533611473  1.0000
  As  As394     1.0  0.20131147540983607  0.22840909090909092  0.6038204165658853  1.0000
  As  As395     1.0  0.21442622950819673  0.22840909090909092  0.6097841314779671  1.0000
  As  As396     1.0  0.24327868852459017  0.22954545454545458  0.609136289870098  1.0000
  As  As397     1.0  0.25639344262295083  0.22954545454545458  0.5978949984368322  1.0000
  As  As398     1.0  0.28459016393442627  0.22840909090909092  0.6062920290678546  1.0000
  As  As399     1.0  0.2977049180327869  0.22840909090909092  0.6024305548455073  1.0000
  As  As400     1.0  0.32655737704918036  0.22954545454545458  0.6080734151479068  1.0000
  As  As401     1.0  0.339672131147541  0.22954545454545458  0.6010846163798916  1.0000
  As  As402     1.0  0.3678688524590164  0.22840909090909092  0.5958473664207411  1.0000
  As  As403     1.0  0.3816393442622951  0.22840909090909092  0.6046112497589109  1.0000
  As  As404     1.0  0.4098360655737705  0.22954545454545458  0.6050817593536211  1.0000
  As  As405     1.0  0.42295081967213116  0.22954545454545458  0.5951773764696199  1.0000
  As  As406     1.0  0.45114754098360654  0.22840909090909092  0.5972621044491695  1.0000
  As  As407     1.0  0.46491803278688526  0.22840909090909092  0.6099118419683309  1.0000
  As  As408     1.0  0.4931147540983607  0.22954545454545458  0.6050422773434004  1.0000
  As  As409     1.0  0.5062295081967213  0.22954545454545458  0.6073749730092314  1.0000
  As  As410     1.0  0.5344262295081967  0.22840909090909092  0.6023385695102061  1.0000
  As  As411     1.0  0.5481967213114755  0.22840909090909092  0.604928293638457  1.0000
  As  As412     1.0  0.5763934426229509  0.22954545454545458  0.6093530237332659  1.0000
  As  As413     1.0  0.5895081967213115  0.22954545454545458  0.6036160107632604  1.0000
  As  As414     1.0  0.6177049180327869  0.22840909090909092  0.5994728678448943  1.0000
  As  As415     1.0  0.6314754098360656  0.22840909090909092  0.6090558817109731  1.0000
  As  As416     1.0  0.6596721311475411  0.22954545454545458  0.6095289186082891  1.0000
  As  As417     1.0  0.6727868852459017  0.22954545454545458  0.6099079436931065  1.0000
  As  As418     1.0  0.7016393442622951  0.22840909090909092  0.603860100589996  1.0000
  As  As419     1.0  0.7147540983606557  0.22840909090909092  0.6082320978856077  1.0000
  As  As420     1.0  0.7429508196721312  0.22954545454545458  0.596789208683612  1.0000
  As  As421     1.0  0.7560655737704919  0.22954545454545458  0.6058743164814202  1.0000
  As  As422     1.0  0.7849180327868852  0.22840909090909092  0.5942718511454892  1.0000
  As  As423     1.0  0.7980327868852459  0.22840909090909092  0.5998692587113147  1.0000
  As  As424     1.0  0.8262295081967214  0.22954545454545458  0.5949468652889037  1.0000
  As  As425     1.0  0.84  0.22954545454545458  0.5920272449767189  1.0000
  As  As426     1.0  0.8681967213114754  0.22840909090909092  0.606135139139131  1.0000
  As  As427     1.0  0.8813114754098361  0.22840909090909092  0.599135277397478  1.0000
  As  As428     1.0  0.9095081967213116  0.22954545454545458  0.5915117271208078  1.0000
  As  As429     1.0  0.9232786885245903  0.22954545454545458  0.5950918828856615  1.0000
  As  As430     1.0  0.9514754098360655  0.22840909090909092  0.5944028262579887  1.0000
  As  As431     1.0  0.9645901639344262  0.22840909090909092  0.6024331465857955  1.0000
  As  As432     1.0  0.9927868852459016  0.22954545454545458  0.5909834504931919  1.0000
  As  As433     1.0  0.013114754098360656  0.25  0.606020902437673  1.0000
  Si  Si145     1.0  0.027540983775109332  0.2500000002920929  0.592597684376793  1.0000
  Si  Si146     1.0  0.05508196738166671  0.2500000002920929  0.6032994311806819  1.0000
  As  As434     1.0  0.06950819672131149  0.25  0.5974326245020991  1.0000
  As  As435     1.0  0.09639344262295083  0.25  0.6094195531745801  1.0000
  Si  Si147     1.0  0.1108196722996995  0.2500000002920929  0.591668529605518  1.0000
  Si  Si148     1.0  0.1383606559062569  0.2500000002920929  0.5939322546036921  1.0000
  As  As436     1.0  0.15278688524590164  0.25  0.6000018396292413  1.0000
  As  As437     1.0  0.179672131147541  0.25  0.6032810681767945  1.0000
  Si  Si149     1.0  0.1940983608242897  0.2500000002920929  0.5977236821512805  1.0000
  Si  Si150     1.0  0.22163934443084704  0.2500000002920929  0.5948217226461242  1.0000
  As  As438     1.0  0.2360655737704918  0.25  0.6023427578804038  1.0000
  As  As439     1.0  0.26295081967213113  0.25  0.5986941391339433  1.0000
  Si  Si151     1.0  0.27737704934887986  0.2500000002920929  0.6092978827685587  1.0000
  Si  Si152     1.0  0.30491803295543723  0.2500000002920929  0.6074879062237892  1.0000
  As  As440     1.0  0.319344262295082  0.25  0.6067652800863391  1.0000
  As  As441     1.0  0.3462295081967213  0.25  0.6032158478177236  1.0000
  Si  Si153     1.0  0.36065573787347  0.2500000002920929  0.593034341673984  1.0000
  Si  Si154     1.0  0.38885245918494543  0.2500000002920929  0.6092741686145013  1.0000
  As  As442     1.0  0.40327868852459015  0.25  0.5940683612280152  1.0000
  As  As443     1.0  0.42950819672131146  0.25  0.5922818101420825  1.0000
  Si  Si155     1.0  0.44393442639806013  0.2500000002920929  0.6008234122668793  1.0000
  Si  Si156     1.0  0.4721311477095356  0.2500000002920929  0.6044829395735553  1.0000
  As  As444     1.0  0.48655737704918034  0.25  0.6065093171547169  1.0000
  As  As445     1.0  0.5127868852459017  0.25  0.6008605532539908  1.0000
  Si  Si157     1.0  0.5272131149226503  0.2500000002920929  0.5992012323066279  1.0000
  Si  Si158     1.0  0.5554098362341258  0.2500000002920929  0.5987090512717116  1.0000
  As  As446     1.0  0.5698360655737705  0.25  0.6028504398919634  1.0000
  As  As447     1.0  0.5960655737704919  0.25  0.6024118756220915  1.0000
  Si  Si159     1.0  0.6104918034472405  0.2500000002920929  0.5997115177888355  1.0000
  Si  Si160     1.0  0.6386885247587158  0.2500000002920929  0.607234590123736  1.0000
  As  As448     1.0  0.6531147540983607  0.25  0.5978534670974484  1.0000
  As  As449     1.0  0.68  0.25  0.5983774078305574  1.0000
  Si  Si161     1.0  0.6944262296767487  0.2500000002920929  0.5910501175355171  1.0000
  Si  Si162     1.0  0.7219672132833059  0.2500000002920929  0.6010411935496873  1.0000
  As  As450     1.0  0.7363934426229509  0.25  0.5989012965290842  1.0000
  As  As451     1.0  0.7632786885245902  0.25  0.606357045605113  1.0000
  Si  Si163     1.0  0.7777049182013388  0.2500000002920929  0.5998396744488929  1.0000
  Si  Si164     1.0  0.8052459018078961  0.2500000002920929  0.6084277701038335  1.0000
  As  As452     1.0  0.819672131147541  0.25  0.6063723495177237  1.0000
  As  As453     1.0  0.8465573770491803  0.25  0.6070163041964879  1.0000
  Si  Si165     1.0  0.860983606725929  0.2500000002920929  0.6059921331504208  1.0000
  Si  Si166     1.0  0.8885245903324863  0.2500000002920929  0.6019439162738749  1.0000
  As  As454     1.0  0.9029508196721313  0.25  0.5932438146607046  1.0000
  As  As455     1.0  0.9298360655737705  0.25  0.6068024954282514  1.0000
  Si  Si167     1.0  0.9442622952505191  0.2500000002920929  0.608998531355814  1.0000
  Si  Si168     1.0  0.9718032788570764  0.2500000002920929  0.5985293247969968  1.0000
  As  As456     1.0  0.9862295081967214  0.25  0.609543112942759  1.0000
  As  As457     1.0  0.006557377049180328  0.26931818181818185  0.5922827338289031  1.0000
  As  As458     1.0  0.034754098360655745  0.27045454545454545  0.6071275252080917  1.0000
  As  As459     1.0  0.0478688524590164  0.27045454545454545  0.5949173036635855  1.0000
  As  As460     1.0  0.0760655737704918  0.26931818181818185  0.5989038114432865  1.0000
  As  As461     1.0  0.0898360655737705  0.26931818181818185  0.5962973753292641  1.0000
  As  As462     1.0  0.1180327868852459  0.27045454545454545  0.6095150644050461  1.0000
  As  As463     1.0  0.13114754098360656  0.27045454545454545  0.5984146972749824  1.0000
  As  As464     1.0  0.15934426229508197  0.26931818181818185  0.5949446775058417  1.0000
  As  As465     1.0  0.17311475409836066  0.26931818181818185  0.5954801925526321  1.0000
  As  As466     1.0  0.20131147540983607  0.27045454545454545  0.6014112693535707  1.0000
  As  As467     1.0  0.21442622950819673  0.27045454545454545  0.598839307427152  1.0000
  As  As468     1.0  0.24327868852459017  0.26931818181818185  0.6021451239932442  1.0000
  As  As469     1.0  0.25639344262295083  0.26931818181818185  0.5979332266613147  1.0000
  As  As470     1.0  0.28459016393442627  0.27045454545454545  0.5985935601129432  1.0000
  As  As471     1.0  0.2977049180327869  0.27045454545454545  0.6093035949760256  1.0000
  As  As472     1.0  0.32655737704918036  0.26931818181818185  0.6075288748250772  1.0000
  As  As473     1.0  0.339672131147541  0.26931818181818185  0.6014170413260123  1.0000
  As  As474     1.0  0.3678688524590164  0.27045454545454545  0.6000055622944412  1.0000
  As  As475     1.0  0.3816393442622951  0.27045454545454545  0.5965889253290481  1.0000
  As  As476     1.0  0.4098360655737705  0.26931818181818185  0.6010435203267117  1.0000
  As  As477     1.0  0.42295081967213116  0.26931818181818185  0.5926507108965168  1.0000
  As  As478     1.0  0.45114754098360654  0.27045454545454545  0.6018454773706572  1.0000
  As  As479     1.0  0.46491803278688526  0.27045454545454545  0.5904812929596872  1.0000
  As  As480     1.0  0.4931147540983607  0.26931818181818185  0.6051321997154422  1.0000
  As  As481     1.0  0.5062295081967213  0.26931818181818185  0.5975825896892455  1.0000
  As  As482     1.0  0.5344262295081967  0.27045454545454545  0.5919556770289036  1.0000
  As  As483     1.0  0.5481967213114755  0.27045454545454545  0.6094119170363893  1.0000
  As  As484     1.0  0.5763934426229509  0.26931818181818185  0.6074011449469036  1.0000
  As  As485     1.0  0.5895081967213115  0.26931818181818185  0.5993107373436038  1.0000
  As  As486     1.0  0.6177049180327869  0.27045454545454545  0.5933325746205387  1.0000
  As  As487     1.0  0.6314754098360656  0.27045454545454545  0.5939553173426445  1.0000
  As  As488     1.0  0.6596721311475411  0.26931818181818185  0.6063075681535472  1.0000
  As  As489     1.0  0.6727868852459017  0.26931818181818185  0.6097292795247876  1.0000
  As  As490     1.0  0.7016393442622951  0.27045454545454545  0.6091912629562451  1.0000
  As  As491     1.0  0.7147540983606557  0.27045454545454545  0.6015879885614528  1.0000
  As  As492     1.0  0.7429508196721312  0.26931818181818185  0.6061392830387504  1.0000
  As  As493     1.0  0.7560655737704919  0.26931818181818185  0.5979736492192127  1.0000
  As  As494     1.0  0.7849180327868852  0.27045454545454545  0.6078335920537596  1.0000
  As  As495     1.0  0.7980327868852459  0.27045454545454545  0.6085311988889036  1.0000
  As  As496     1.0  0.8262295081967214  0.26931818181818185  0.5960295830535344  1.0000
  As  As497     1.0  0.84  0.26931818181818185  0.6009834585483493  1.0000
  As  As498     1.0  0.8681967213114754  0.27045454545454545  0.6093209336032288  1.0000
  As  As499     1.0  0.8813114754098361  0.27045454545454545  0.5945004349025483  1.0000
  As  As500     1.0  0.9095081967213116  0.26931818181818185  0.594950473908835  1.0000
  As  As501     1.0  0.9232786885245903  0.26931818181818185  0.6042093114187098  1.0000
  As  As502     1.0  0.9514754098360655  0.27045454545454545  0.6035259384398054  1.0000
  As  As503     1.0  0.9645901639344262  0.27045454545454545  0.600468288427336  1.0000
  As  As504     1.0  0.9927868852459016  0.26931818181818185  0.5969220377559331  1.0000
  Si  Si169     1.0  0.01377049197183064  0.29090909120118386  0.6047820190728235  1.0000
  As  As505     1.0  0.02819672131147541  0.29090909090909095  0.5926334975121061  1.0000
  As  As506     1.0  0.05442622950819673  0.29090909090909095  0.5964171599219628  1.0000
  Si  Si170     1.0  0.06885245918494541  0.29090909120118386  0.5924705992753413  1.0000
  Si  Si171     1.0  0.0970491804964208  0.29090909120118386  0.6020874823279421  1.0000
  As  As507     1.0  0.11147540983606558  0.29090909090909095  0.6006330721166705  1.0000
  As  As508     1.0  0.13836065573770492  0.29090909090909095  0.5966213487398856  1.0000
  Si  Si172     1.0  0.15213114770953556  0.29090909120118386  0.5979401262913802  1.0000
  Si  Si173     1.0  0.18032786902101097  0.29090909120118386  0.6036111366485065  1.0000
  As  As509     1.0  0.19475409836065577  0.29090909090909095  0.6027278375423131  1.0000
  As  As510     1.0  0.22163934426229512  0.29090909090909095  0.5978350037750627  1.0000
  Si  Si174     1.0  0.23606557393904376  0.29090909120118386  0.5919358744318443  1.0000
  Si  Si175     1.0  0.26360655754560114  0.29090909120118386  0.6051246325616033  1.0000
  As  As511     1.0  0.27803278688524596  0.29090909090909095  0.5904079010029832  1.0000
  As  As512     1.0  0.30491803278688523  0.29090909090909095  0.6064148474036656  1.0000
  Si  Si176     1.0  0.31934426246363395  0.29090909120118386  0.5956513088250065  1.0000
  Si  Si177     1.0  0.3468852460701913  0.29090909120118386  0.5946052347721722  1.0000
  As  As513     1.0  0.36131147540983605  0.29090909090909095  0.6047951268301504  1.0000
  As  As514     1.0  0.3881967213114754  0.29090909090909095  0.6067175965680125  1.0000
  Si  Si178     1.0  0.4026229509882241  0.29090909120118386  0.5947896942219582  1.0000
  Si  Si179     1.0  0.43016393459478147  0.29090909120118386  0.6080189644679024  1.0000
  As  As515     1.0  0.4445901639344262  0.29090909090909095  0.5976096248452739  1.0000
  As  As516     1.0  0.4714754098360656  0.29090909090909095  0.5902422285590071  1.0000
  Si  Si180     1.0  0.4859016395128143  0.29090909120118386  0.6047237839490878  1.0000
  Si  Si181     1.0  0.5134426231193716  0.29090909120118386  0.5955919467538824  1.0000
  As  As517     1.0  0.5278688524590164  0.29090909090909095  0.5994432471686537  1.0000
  As  As518     1.0  0.5547540983606558  0.29090909090909095  0.6035137929856099  1.0000
  Si  Si182     1.0  0.5691803280374045  0.29090909120118386  0.6077526301282821  1.0000
  Si  Si183     1.0  0.5967213116439618  0.29090909120118386  0.5941552099512354  1.0000
  As  As519     1.0  0.6111475409836066  0.29090909090909095  0.6014115363639582  1.0000
  As  As520     1.0  0.638032786885246  0.29090909090909095  0.5953046875984738  1.0000
  Si  Si184     1.0  0.6524590165619947  0.29090909120118386  0.5927246211434105  1.0000
  Si  Si185     1.0  0.6800000001685519  0.29090909120118386  0.5921975165789606  1.0000
  As  As521     1.0  0.6944262295081968  0.29090909090909095  0.6017619285684244  1.0000
  As  As522     1.0  0.7213114754098361  0.29090909090909095  0.6009355793543425  1.0000
  Si  Si186     1.0  0.7357377050865848  0.29090909120118386  0.6054058206601435  1.0000
  Si  Si187     1.0  0.7632786886931421  0.29090909120118386  0.6082163229466444  1.0000
  As  As523     1.0  0.777704918032787  0.29090909090909095  0.5922048478041909  1.0000
  As  As524     1.0  0.8045901639344263  0.29090909090909095  0.6049406397071199  1.0000
  Si  Si188     1.0  0.819016393611175  0.29090909120118386  0.6003119633544095  1.0000
  Si  Si189     1.0  0.8472131149226502  0.29090909120118386  0.6097890579104065  1.0000
  As  As525     1.0  0.8609836065573772  0.29090909090909095  0.6049738163245775  1.0000
  As  As526     1.0  0.8878688524590165  0.29090909090909095  0.5951046112386653  1.0000
  Si  Si190     1.0  0.902295082135765  0.29090909120118386  0.5906684433390305  1.0000
  Si  Si191     1.0  0.9304918034472405  0.29090909120118386  0.6076340146599528  1.0000
  As  As527     1.0  0.9449180327868852  0.29090909090909095  0.5994137849984666  1.0000
  As  As528     1.0  0.9711475409836066  0.29090909090909095  0.6005820149917812  1.0000
  Si  Si192     1.0  0.9855737706603552  0.29090909120118386  0.5918318262263335  1.0000
  As  As529     1.0  0.034754098360655745  0.3113636363636364  0.5937263414677871  1.0000
  As  As530     1.0  0.0478688524590164  0.3113636363636364  0.5930791282169081  1.0000
  As  As531     1.0  0.1180327868852459  0.3113636363636364  0.6081613955653477  1.0000
  As  As532     1.0  0.13114754098360656  0.3113636363636364  0.6024802812844188  1.0000
  As  As533     1.0  0.20131147540983607  0.3113636363636364  0.6055921530787418  1.0000
  As  As534     1.0  0.21442622950819673  0.3113636363636364  0.6003211620041401  1.0000
  As  As535     1.0  0.28459016393442627  0.3113636363636364  0.5964119699053317  1.0000
  As  As536     1.0  0.2977049180327869  0.3113636363636364  0.5984005754572999  1.0000
  As  As537     1.0  0.3678688524590164  0.3113636363636364  0.6062373715677396  1.0000
  As  As538     1.0  0.3816393442622951  0.3113636363636364  0.6089054396461698  1.0000
  As  As539     1.0  0.45114754098360654  0.3113636363636364  0.5903973650631247  1.0000
  As  As540     1.0  0.46491803278688526  0.3113636363636364  0.6031744089825984  1.0000
  As  As541     1.0  0.5344262295081967  0.3113636363636364  0.5982200037962763  1.0000
  As  As542     1.0  0.5481967213114755  0.3113636363636364  0.6031455455607309  1.0000
  As  As543     1.0  0.6177049180327869  0.3113636363636364  0.5926412127408262  1.0000
  As  As544     1.0  0.6314754098360656  0.3113636363636364  0.6000125468431272  1.0000
  As  As545     1.0  0.7016393442622951  0.3113636363636364  0.6082731774442973  1.0000
  As  As546     1.0  0.7147540983606557  0.3113636363636364  0.5943277604575303  1.0000
  As  As547     1.0  0.7849180327868852  0.3113636363636364  0.6006977079640697  1.0000
  As  As548     1.0  0.7980327868852459  0.3113636363636364  0.5935917830876953  1.0000
  As  As549     1.0  0.8681967213114754  0.3113636363636364  0.6068925354224545  1.0000
  As  As550     1.0  0.8813114754098361  0.3113636363636364  0.5920143133959611  1.0000
  As  As551     1.0  0.9514754098360655  0.3113636363636364  0.6035151797510155  1.0000
  As  As552     1.0  0.9645901639344262  0.3113636363636364  0.5950935328691719  1.0000
  As  As553     1.0  0.006557377049180328  0.3125  0.6014189253609926  1.0000
  As  As554     1.0  0.0760655737704918  0.3125  0.6026014721629904  1.0000
  As  As555     1.0  0.0898360655737705  0.3125  0.5974886315397615  1.0000
  As  As556     1.0  0.15934426229508197  0.3125  0.6028440824256937  1.0000
  As  As557     1.0  0.17311475409836066  0.3125  0.6061023982914646  1.0000
  As  As558     1.0  0.24327868852459017  0.3125  0.594551723385127  1.0000
  As  As559     1.0  0.25639344262295083  0.3125  0.599442505409065  1.0000
  As  As560     1.0  0.32655737704918036  0.3125  0.5916716824680144  1.0000
  As  As561     1.0  0.339672131147541  0.3125  0.5942396744309856  1.0000
  As  As562     1.0  0.4098360655737705  0.3125  0.5925741841565193  1.0000
  As  As563     1.0  0.42295081967213116  0.3125  0.6017644470889915  1.0000
  As  As564     1.0  0.4931147540983607  0.3125  0.5929769541107297  1.0000
  As  As565     1.0  0.5062295081967213  0.3125  0.5981249116274618  1.0000
  As  As566     1.0  0.5763934426229509  0.3125  0.5948312756153485  1.0000
  As  As567     1.0  0.5895081967213115  0.3125  0.6083393198646083  1.0000
  As  As568     1.0  0.6596721311475411  0.3125  0.592726377019673  1.0000
  As  As569     1.0  0.6727868852459017  0.3125  0.601591150892777  1.0000
  As  As570     1.0  0.7429508196721312  0.3125  0.6036380027516586  1.0000
  As  As571     1.0  0.7560655737704919  0.3125  0.6013070543972985  1.0000
  As  As572     1.0  0.8262295081967214  0.3125  0.5983219159707499  1.0000
  As  As573     1.0  0.84  0.3125  0.5927115545204659  1.0000
  As  As574     1.0  0.9095081967213116  0.3125  0.5921220213537421  1.0000
  As  As575     1.0  0.9232786885245903  0.3125  0.609264999328671  1.0000
  As  As576     1.0  0.9927868852459016  0.3125  0.6033092853619387  1.0000
  As  As577     1.0  0.013114754098360656  0.33295454545454545  0.6081758860076509  1.0000
  Si  Si193     1.0  0.027540983775109332  0.33295454574663835  0.5999290165770591  1.0000
  Si  Si194     1.0  0.05508196738166671  0.33295454574663835  0.5997854320003683  1.0000
  As  As578     1.0  0.06950819672131149  0.33295454545454545  0.6071463852707286  1.0000
  As  As579     1.0  0.09639344262295083  0.33295454545454545  0.5935844154511939  1.0000
  Si  Si195     1.0  0.1108196722996995  0.33295454574663835  0.5959260951031048  1.0000
  Si  Si196     1.0  0.1383606559062569  0.33295454574663835  0.6025529731644805  1.0000
  As  As580     1.0  0.15278688524590164  0.33295454545454545  0.6000340519485444  1.0000
  As  As581     1.0  0.179672131147541  0.33295454545454545  0.5999417653753203  1.0000
  Si  Si197     1.0  0.1940983608242897  0.33295454574663835  0.6055035066161767  1.0000
  Si  Si198     1.0  0.22163934443084704  0.33295454574663835  0.6076402752702521  1.0000
  As  As582     1.0  0.2360655737704918  0.33295454545454545  0.5989725347803235  1.0000
  As  As583     1.0  0.26295081967213113  0.33295454545454545  0.6068142300134467  1.0000
  Si  Si199     1.0  0.27737704934887986  0.33295454574663835  0.5999996525246504  1.0000
  Si  Si200     1.0  0.30491803295543723  0.33295454574663835  0.609372219700123  1.0000
  As  As584     1.0  0.319344262295082  0.33295454545454545  0.6055156870621456  1.0000
  As  As585     1.0  0.3462295081967213  0.33295454545454545  0.5971667712056208  1.0000
  Si  Si201     1.0  0.36065573787347  0.33295454574663835  0.5965724362753676  1.0000
  Si  Si202     1.0  0.38885245918494543  0.33295454574663835  0.5965656816958098  1.0000
  As  As586     1.0  0.40327868852459015  0.33295454545454545  0.5980801720953516  1.0000
  As  As587     1.0  0.42950819672131146  0.33295454545454545  0.609586138390277  1.0000
  Si  Si203     1.0  0.44393442639806013  0.33295454574663835  0.5934593597555441  1.0000
  Si  Si204     1.0  0.4721311477095356  0.33295454574663835  0.6085812036448499  1.0000
  As  As588     1.0  0.48655737704918034  0.33295454545454545  0.6025755645074807  1.0000
  As  As589     1.0  0.5127868852459017  0.33295454545454545  0.5988185454131432  1.0000
  Si  Si205     1.0  0.5272131149226503  0.33295454574663835  0.6025789002568676  1.0000
  Si  Si206     1.0  0.5554098362341258  0.33295454574663835  0.5996902402930055  1.0000
  As  As590     1.0  0.5698360655737705  0.33295454545454545  0.5916136110951479  1.0000
  As  As591     1.0  0.5960655737704919  0.33295454545454545  0.5930239715166561  1.0000
  Si  Si207     1.0  0.6104918034472405  0.33295454574663835  0.5970114899300029  1.0000
  Si  Si208     1.0  0.6386885247587158  0.33295454574663835  0.5972722989958152  1.0000
  As  As592     1.0  0.6531147540983607  0.33295454545454545  0.5930373383909205  1.0000
  As  As593     1.0  0.68  0.33295454545454545  0.6087572416071625  1.0000
  Si  Si209     1.0  0.6944262296767487  0.33295454574663835  0.6025470301190867  1.0000
  Si  Si210     1.0  0.7219672132833059  0.33295454574663835  0.5907685956428959  1.0000
  As  As594     1.0  0.7363934426229509  0.33295454545454545  0.6040512426252282  1.0000
  As  As595     1.0  0.7632786885245902  0.33295454545454545  0.5999480391752596  1.0000
  Si  Si211     1.0  0.7777049182013388  0.33295454574663835  0.5966308645595843  1.0000
  Si  Si212     1.0  0.8052459018078961  0.33295454574663835  0.6016730552845881  1.0000
  As  As596     1.0  0.819672131147541  0.33295454545454545  0.5912582570382361  1.0000
  As  As597     1.0  0.8465573770491803  0.33295454545454545  0.6026704260317136  1.0000
  Si  Si213     1.0  0.860983606725929  0.33295454574663835  0.6051507889161848  1.0000
  Si  Si214     1.0  0.8885245903324863  0.33295454574663835  0.5991918032071246  1.0000
  As  As598     1.0  0.9029508196721313  0.33295454545454545  0.6066883104036842  1.0000
  As  As599     1.0  0.9298360655737705  0.33295454545454545  0.6078387147251755  1.0000
  Si  Si215     1.0  0.9442622952505191  0.33295454574663835  0.6088263709611721  1.0000
  Si  Si216     1.0  0.9718032788570764  0.33295454574663835  0.5931012636848931  1.0000
  As  As600     1.0  0.9862295081967214  0.33295454545454545  0.5987639993876553  1.0000
  As  As601     1.0  0.006557377049180328  0.35340909090909095  0.6007036015464421  1.0000
  As  As602     1.0  0.034754098360655745  0.3545454545454546  0.6025162668420048  1.0000
  As  As603     1.0  0.0478688524590164  0.3545454545454546  0.607626185461688  1.0000
  As  As604     1.0  0.0760655737704918  0.35340909090909095  0.6052152182850239  1.0000
  As  As605     1.0  0.0898360655737705  0.35340909090909095  0.6069146782971532  1.0000
  As  As606     1.0  0.1180327868852459  0.3545454545454546  0.5900566343993829  1.0000
  As  As607     1.0  0.13114754098360656  0.3545454545454546  0.6040442540332862  1.0000
  As  As608     1.0  0.15934426229508197  0.35340909090909095  0.6058771839501538  1.0000
  As  As609     1.0  0.17311475409836066  0.35340909090909095  0.5969104637153592  1.0000
  As  As610     1.0  0.20131147540983607  0.3545454545454546  0.6072719692851296  1.0000
  As  As611     1.0  0.21442622950819673  0.3545454545454546  0.5948253618892102  1.0000
  As  As612     1.0  0.24327868852459017  0.35340909090909095  0.5952284548142889  1.0000
  As  As613     1.0  0.25639344262295083  0.35340909090909095  0.5968406290278496  1.0000
  As  As614     1.0  0.28459016393442627  0.3545454545454546  0.5932514645972814  1.0000
  As  As615     1.0  0.2977049180327869  0.3545454545454546  0.6028434121592636  1.0000
  As  As616     1.0  0.32655737704918036  0.35340909090909095  0.6037728537447635  1.0000
  As  As617     1.0  0.339672131147541  0.35340909090909095  0.6026075984083331  1.0000
  As  As618     1.0  0.3678688524590164  0.3545454545454546  0.6010478905216838  1.0000
  As  As619     1.0  0.3816393442622951  0.3545454545454546  0.6016734964589466  1.0000
  As  As620     1.0  0.4098360655737705  0.35340909090909095  0.5929109036253636  1.0000
  As  As621     1.0  0.42295081967213116  0.35340909090909095  0.5914673251612687  1.0000
  As  As622     1.0  0.45114754098360654  0.3545454545454546  0.609093925150317  1.0000
  As  As623     1.0  0.46491803278688526  0.3545454545454546  0.6016028020895599  1.0000
  As  As624     1.0  0.4931147540983607  0.35340909090909095  0.6047193318786679  1.0000
  As  As625     1.0  0.5062295081967213  0.35340909090909095  0.6086078505198569  1.0000
  As  As626     1.0  0.5344262295081967  0.3545454545454546  0.5952922204570618  1.0000
  As  As627     1.0  0.5481967213114755  0.3545454545454546  0.5948863304709934  1.0000
  As  As628     1.0  0.5763934426229509  0.35340909090909095  0.593063566324059  1.0000
  As  As629     1.0  0.5895081967213115  0.35340909090909095  0.5933306461420006  1.0000
  As  As630     1.0  0.6177049180327869  0.3545454545454546  0.5979491586181486  1.0000
  As  As631     1.0  0.6314754098360656  0.3545454545454546  0.5919123512982405  1.0000
  As  As632     1.0  0.6596721311475411  0.35340909090909095  0.5968977326797853  1.0000
  As  As633     1.0  0.6727868852459017  0.35340909090909095  0.6090671633152196  1.0000
  As  As634     1.0  0.7016393442622951  0.3545454545454546  0.6054784329327285  1.0000
  As  As635     1.0  0.7147540983606557  0.3545454545454546  0.5953251618964391  1.0000
  As  As636     1.0  0.7429508196721312  0.35340909090909095  0.6095756780990759  1.0000
  As  As637     1.0  0.7560655737704919  0.35340909090909095  0.5942891375616675  1.0000
  As  As638     1.0  0.7849180327868852  0.3545454545454546  0.5977107267266785  1.0000
  As  As639     1.0  0.7980327868852459  0.3545454545454546  0.5937795318999108  1.0000
  As  As640     1.0  0.8262295081967214  0.35340909090909095  0.5953515892630524  1.0000
  As  As641     1.0  0.84  0.35340909090909095  0.6080403604140177  1.0000
  As  As642     1.0  0.8681967213114754  0.3545454545454546  0.5962125622488218  1.0000
  As  As643     1.0  0.8813114754098361  0.3545454545454546  0.5947988111603226  1.0000
  As  As644     1.0  0.9095081967213116  0.35340909090909095  0.6014266027192048  1.0000
  As  As645     1.0  0.9232786885245903  0.35340909090909095  0.5923211502726184  1.0000
  As  As646     1.0  0.9514754098360655  0.3545454545454546  0.5922291752452499  1.0000
  As  As647     1.0  0.9645901639344262  0.3545454545454546  0.6087678773029538  1.0000
  As  As648     1.0  0.9927868852459016  0.35340909090909095  0.602574131365834  1.0000
  Si  Si217     1.0  0.01377049197183064  0.3750000002920929  0.592915364410587  1.0000
  As  As649     1.0  0.02819672131147541  0.375  0.6092675613513725  1.0000
  As  As650     1.0  0.05442622950819673  0.375  0.6015451825659547  1.0000
  Si  Si218     1.0  0.06885245918494541  0.3750000002920929  0.5958619447819612  1.0000
  Si  Si219     1.0  0.0970491804964208  0.3750000002920929  0.6040697984195735  1.0000
  As  As651     1.0  0.11147540983606558  0.375  0.595504007456895  1.0000
  As  As652     1.0  0.13836065573770492  0.375  0.6061399318738566  1.0000
  Si  Si220     1.0  0.15213114770953556  0.3750000002920929  0.5928210055614872  1.0000
  Si  Si221     1.0  0.18032786902101097  0.3750000002920929  0.5939462108728917  1.0000
  As  As653     1.0  0.19475409836065577  0.375  0.6070146045580859  1.0000
  As  As654     1.0  0.22163934426229512  0.375  0.5977189076465822  1.0000
  Si  Si222     1.0  0.23606557393904376  0.3750000002920929  0.604992136695282  1.0000
  Si  Si223     1.0  0.26360655754560114  0.3750000002920929  0.6031793994774556  1.0000
  As  As655     1.0  0.27803278688524596  0.375  0.591294730000126  1.0000
  As  As656     1.0  0.30491803278688523  0.375  0.6046597486504895  1.0000
  Si  Si224     1.0  0.31934426246363395  0.3750000002920929  0.5967002448351169  1.0000
  Si  Si225     1.0  0.3468852460701913  0.3750000002920929  0.595993896539374  1.0000
  As  As657     1.0  0.36131147540983605  0.375  0.5927177268618035  1.0000
  As  As658     1.0  0.3881967213114754  0.375  0.5994938482879877  1.0000
  Si  Si226     1.0  0.4026229509882241  0.3750000002920929  0.5926054774648023  1.0000
  Si  Si227     1.0  0.43016393459478147  0.3750000002920929  0.5965162563184621  1.0000
  As  As659     1.0  0.4445901639344262  0.375  0.5902912200764693  1.0000
  As  As660     1.0  0.4714754098360656  0.375  0.593560019533301  1.0000
  Si  Si228     1.0  0.4859016395128143  0.3750000002920929  0.5935991218075903  1.0000
  Si  Si229     1.0  0.5134426231193716  0.3750000002920929  0.6055338406215974  1.0000
  As  As661     1.0  0.5278688524590164  0.375  0.5973020434596684  1.0000
  As  As662     1.0  0.5547540983606558  0.375  0.5988802755314566  1.0000
  Si  Si230     1.0  0.5691803280374045  0.3750000002920929  0.6022554735177936  1.0000
  Si  Si231     1.0  0.5967213116439618  0.3750000002920929  0.60525680744598  1.0000
  As  As663     1.0  0.6111475409836066  0.375  0.598122459429554  1.0000
  As  As664     1.0  0.638032786885246  0.375  0.5994341590907114  1.0000
  Si  Si232     1.0  0.6524590165619947  0.3750000002920929  0.5900346975373868  1.0000
  Si  Si233     1.0  0.6800000001685519  0.3750000002920929  0.5964625277263543  1.0000
  As  As665     1.0  0.6944262295081968  0.375  0.5976618369337018  1.0000
  As  As666     1.0  0.7213114754098361  0.375  0.5954642989382368  1.0000
  Si  Si234     1.0  0.7357377050865848  0.3750000002920929  0.5919131128877423  1.0000
  Si  Si235     1.0  0.7632786886931421  0.3750000002920929  0.6090233108666651  1.0000
  As  As667     1.0  0.777704918032787  0.375  0.5977845695578027  1.0000
  As  As668     1.0  0.8045901639344263  0.375  0.6092140211670882  1.0000
  Si  Si236     1.0  0.819016393611175  0.3750000002920929  0.6086570326087922  1.0000
  Si  Si237     1.0  0.8472131149226502  0.3750000002920929  0.6067683780222906  1.0000
  As  As669     1.0  0.8609836065573772  0.375  0.5963200908351318  1.0000
  As  As670     1.0  0.8878688524590165  0.375  0.593544302775966  1.0000
  Si  Si238     1.0  0.902295082135765  0.3750000002920929  0.6025003730517586  1.0000
  Si  Si239     1.0  0.9304918034472405  0.3750000002920929  0.6027113937656791  1.0000
  As  As671     1.0  0.9449180327868852  0.375  0.6030123675132546  1.0000
  As  As672     1.0  0.9711475409836066  0.375  0.6099713033999286  1.0000
  Si  Si240     1.0  0.9855737706603552  0.3750000002920929  0.5953481650607725  1.0000
  As  As673     1.0  0.006557377049180328  0.3954545454545455  0.5962140220054118  1.0000
  As  As674     1.0  0.034754098360655745  0.39431818181818185  0.5989821519639363  1.0000
  As  As675     1.0  0.0478688524590164  0.39431818181818185  0.609771184410189  1.0000
  As  As676     1.0  0.0760655737704918  0.3954545454545455  0.5901355811404887  1.0000
  As  As677     1.0  0.0898360655737705  0.3954545454545455  0.6006865794615859  1.0000
  As  As678     1.0  0.1180327868852459  0.39431818181818185  0.5904722625284011  1.0000
  As  As679     1.0  0.13114754098360656  0.39431818181818185  0.6060532671196012  1.0000
  As  As680     1.0  0.15934426229508197  0.3954545454545455  0.6055253597941246  1.0000
  As  As681     1.0  0.17311475409836066  0.3954545454545455  0.6041880815336458  1.0000
  As  As682     1.0  0.20131147540983607  0.39431818181818185  0.598168597189053  1.0000
  As  As683     1.0  0.21442622950819673  0.39431818181818185  0.595434998146238  1.0000
  As  As684     1.0  0.24327868852459017  0.3954545454545455  0.5917793300472312  1.0000
  As  As685     1.0  0.25639344262295083  0.3954545454545455  0.6002747037621297  1.0000
  As  As686     1.0  0.28459016393442627  0.39431818181818185  0.5939901526160011  1.0000
  As  As687     1.0  0.2977049180327869  0.39431818181818185  0.6023255907412937  1.0000
  As  As688     1.0  0.32655737704918036  0.3954545454545455  0.6059306681064104  1.0000
  As  As689     1.0  0.339672131147541  0.3954545454545455  0.5983105988140357  1.0000
  As  As690     1.0  0.3678688524590164  0.39431818181818185  0.5991919716951519  1.0000
  As  As691     1.0  0.3816393442622951  0.39431818181818185  0.6016183382591906  1.0000
  As  As692     1.0  0.4098360655737705  0.3954545454545455  0.6003932616112325  1.0000
  As  As693     1.0  0.42295081967213116  0.3954545454545455  0.6036632308869965  1.0000
  As  As694     1.0  0.45114754098360654  0.39431818181818185  0.6038399022299425  1.0000
  As  As695     1.0  0.46491803278688526  0.39431818181818185  0.5913856399249569  1.0000
  As  As696     1.0  0.4931147540983607  0.3954545454545455  0.5990494898982572  1.0000
  As  As697     1.0  0.5062295081967213  0.3954545454545455  0.6004908157914398  1.0000
  As  As698     1.0  0.5344262295081967  0.39431818181818185  0.5928838960028437  1.0000
  As  As699     1.0  0.5481967213114755  0.39431818181818185  0.5943794045903903  1.0000
  As  As700     1.0  0.5763934426229509  0.3954545454545455  0.6053617815598055  1.0000
  As  As701     1.0  0.5895081967213115  0.3954545454545455  0.5900433951756442  1.0000
  As  As702     1.0  0.6177049180327869  0.39431818181818185  0.5972348058010235  1.0000
  As  As703     1.0  0.6314754098360656  0.39431818181818185  0.606718292286192  1.0000
  As  As704     1.0  0.6596721311475411  0.3954545454545455  0.5927631730998008  1.0000
  As  As705     1.0  0.6727868852459017  0.3954545454545455  0.6042838030956657  1.0000
  As  As706     1.0  0.7016393442622951  0.39431818181818185  0.5983515394588287  1.0000
  As  As707     1.0  0.7147540983606557  0.39431818181818185  0.5969597695406583  1.0000
  As  As708     1.0  0.7429508196721312  0.3954545454545455  0.603962745097626  1.0000
  As  As709     1.0  0.7560655737704919  0.3954545454545455  0.6001087773038367  1.0000
  As  As710     1.0  0.7849180327868852  0.39431818181818185  0.5994291017540585  1.0000
  As  As711     1.0  0.7980327868852459  0.39431818181818185  0.608204381965984  1.0000
  As  As712     1.0  0.8262295081967214  0.3954545454545455  0.6040439978449657  1.0000
  As  As713     1.0  0.84  0.3954545454545455  0.6049378268827309  1.0000
  As  As714     1.0  0.8681967213114754  0.39431818181818185  0.6026744585380756  1.0000
  As  As715     1.0  0.8813114754098361  0.39431818181818185  0.5996169446261826  1.0000
  As  As716     1.0  0.9095081967213116  0.3954545454545455  0.5912189083257479  1.0000
  As  As717     1.0  0.9232786885245903  0.3954545454545455  0.6047425737391438  1.0000
  As  As718     1.0  0.9514754098360655  0.39431818181818185  0.5930547568043024  1.0000
  As  As719     1.0  0.9645901639344262  0.39431818181818185  0.5994180532647552  1.0000
  As  As720     1.0  0.9927868852459016  0.3954545454545455  0.6077190027397671  1.0000
  As  As721     1.0  0.013114754098360656  0.41590909090909095  0.600285917658129  1.0000
  Si  Si241     1.0  0.027540983775109332  0.41590909120118386  0.5925184038673325  1.0000
  Si  Si242     1.0  0.05508196738166671  0.41590909120118386  0.5918811001446243  1.0000
  As  As722     1.0  0.06950819672131149  0.41590909090909095  0.6004845063440247  1.0000
  As  As723     1.0  0.09639344262295083  0.41590909090909095  0.5910874316031858  1.0000
  Si  Si243     1.0  0.1108196722996995  0.41590909120118386  0.5938660342990078  1.0000
  Si  Si244     1.0  0.1383606559062569  0.41590909120118386  0.5934425752196185  1.0000
  As  As724     1.0  0.15278688524590164  0.41590909090909095  0.5956495112332381  1.0000
  As  As725     1.0  0.179672131147541  0.41590909090909095  0.5947772678346732  1.0000
  Si  Si245     1.0  0.1940983608242897  0.41590909120118386  0.5937218333815362  1.0000
  Si  Si246     1.0  0.22163934443084704  0.41590909120118386  0.597005219035643  1.0000
  As  As726     1.0  0.2360655737704918  0.41590909090909095  0.6071575899457837  1.0000
  As  As727     1.0  0.26295081967213113  0.41590909090909095  0.6063832219978056  1.0000
  Si  Si247     1.0  0.27737704934887986  0.41590909120118386  0.5962198912348772  1.0000
  Si  Si248     1.0  0.30491803295543723  0.41590909120118386  0.5901860418528825  1.0000
  As  As728     1.0  0.319344262295082  0.41590909090909095  0.6010939231878216  1.0000
  As  As729     1.0  0.3462295081967213  0.41590909090909095  0.5912553230203964  1.0000
  Si  Si249     1.0  0.36065573787347  0.41590909120118386  0.5965989997626558  1.0000
  Si  Si250     1.0  0.38885245918494543  0.41590909120118386  0.5981429645259608  1.0000
  As  As730     1.0  0.40327868852459015  0.41590909090909095  0.593196433079864  1.0000
  As  As731     1.0  0.42950819672131146  0.41590909090909095  0.6049347146004053  1.0000
  Si  Si251     1.0  0.44393442639806013  0.41590909120118386  0.5992745544796856  1.0000
  Si  Si252     1.0  0.4721311477095356  0.41590909120118386  0.595543430914819  1.0000
  As  As732     1.0  0.48655737704918034  0.41590909090909095  0.6061044597203108  1.0000
  As  As733     1.0  0.5127868852459017  0.41590909090909095  0.5995552285533156  1.0000
  Si  Si253     1.0  0.5272131149226503  0.41590909120118386  0.5948760762098447  1.0000
  Si  Si254     1.0  0.5554098362341258  0.41590909120118386  0.6021571281956632  1.0000
  As  As734     1.0  0.5698360655737705  0.41590909090909095  0.5966497068097919  1.0000
  As  As735     1.0  0.5960655737704919  0.41590909090909095  0.5927157707550199  1.0000
  Si  Si255     1.0  0.6104918034472405  0.41590909120118386  0.6077642236133781  1.0000
  Si  Si256     1.0  0.6386885247587158  0.41590909120118386  0.5981218210476599  1.0000
  As  As736     1.0  0.6531147540983607  0.41590909090909095  0.6025707750525933  1.0000
  As  As737     1.0  0.68  0.41590909090909095  0.6081111367367528  1.0000
  Si  Si257     1.0  0.6944262296767487  0.41590909120118386  0.6053167753742651  1.0000
  Si  Si258     1.0  0.7219672132833059  0.41590909120118386  0.6069574769594912  1.0000
  As  As738     1.0  0.7363934426229509  0.41590909090909095  0.5909459244942168  1.0000
  As  As739     1.0  0.7632786885245902  0.41590909090909095  0.6063964795974365  1.0000
  Si  Si259     1.0  0.7777049182013388  0.41590909120118386  0.6032002638171808  1.0000
  Si  Si260     1.0  0.8052459018078961  0.41590909120118386  0.6000537217283449  1.0000
  As  As740     1.0  0.819672131147541  0.41590909090909095  0.5904241576841253  1.0000
  As  As741     1.0  0.8465573770491803  0.41590909090909095  0.5971644000793322  1.0000
  Si  Si261     1.0  0.860983606725929  0.41590909120118386  0.5979460593117464  1.0000
  Si  Si262     1.0  0.8885245903324863  0.41590909120118386  0.6014772862607054  1.0000
  As  As742     1.0  0.9029508196721313  0.41590909090909095  0.6030393457222595  1.0000
  As  As743     1.0  0.9298360655737705  0.41590909090909095  0.5938930454138868  1.0000
  Si  Si263     1.0  0.9442622952505191  0.41590909120118386  0.598729294437722  1.0000
  Si  Si264     1.0  0.9718032788570764  0.41590909120118386  0.5928583556459971  1.0000
  As  As744     1.0  0.9862295081967214  0.41590909090909095  0.6034152125272674  1.0000
  As  As745     1.0  0.006557377049180328  0.43636363636363645  0.5963322250005875  1.0000
  As  As746     1.0  0.0760655737704918  0.43636363636363645  0.5971006954499912  1.0000
  As  As747     1.0  0.0898360655737705  0.43636363636363645  0.6039328258635533  1.0000
  As  As748     1.0  0.15934426229508197  0.43636363636363645  0.5969736707901732  1.0000
  As  As749     1.0  0.17311475409836066  0.43636363636363645  0.5981375428985838  1.0000
  As  As750     1.0  0.24327868852459017  0.43636363636363645  0.6093352501756053  1.0000
  As  As751     1.0  0.25639344262295083  0.43636363636363645  0.5972835590628164  1.0000
  As  As752     1.0  0.32655737704918036  0.43636363636363645  0.5943294044023709  1.0000
  As  As753     1.0  0.339672131147541  0.43636363636363645  0.6087738844195075  1.0000
  As  As754     1.0  0.4098360655737705  0.43636363636363645  0.5943722016739196  1.0000
  As  As755     1.0  0.42295081967213116  0.43636363636363645  0.5965551854495841  1.0000
  As  As756     1.0  0.4931147540983607  0.43636363636363645  0.5958747488546945  1.0000
  As  As757     1.0  0.5062295081967213  0.43636363636363645  0.6049877168475132  1.0000
  As  As758     1.0  0.5763934426229509  0.43636363636363645  0.6027309161130492  1.0000
  As  As759     1.0  0.5895081967213115  0.43636363636363645  0.6037581793826946  1.0000
  As  As760     1.0  0.6596721311475411  0.43636363636363645  0.6014489390673584  1.0000
  As  As761     1.0  0.6727868852459017  0.43636363636363645  0.6033019928734462  1.0000
  As  As762     1.0  0.7429508196721312  0.43636363636363645  0.5973172481841641  1.0000
  As  As763     1.0  0.7560655737704919  0.43636363636363645  0.5908827706777665  1.0000
  As  As764     1.0  0.8262295081967214  0.43636363636363645  0.5910661793823121  1.0000
  As  As765     1.0  0.84  0.43636363636363645  0.6043454179106704  1.0000
  As  As766     1.0  0.9095081967213116  0.43636363636363645  0.5998979422312906  1.0000
  As  As767     1.0  0.9232786885245903  0.43636363636363645  0.6004085447640134  1.0000
  As  As768     1.0  0.9927868852459016  0.43636363636363645  0.6056134213917432  1.0000
  As  As769     1.0  0.034754098360655745  0.4375  0.5998017363707019  1.0000
  As  As770     1.0  0.0478688524590164  0.4375  0.5901963900135024  1.0000
  As  As771     1.0  0.1180327868852459  0.4375  0.6022888070572272  1.0000
  As  As772     1.0  0.13114754098360656  0.4375  0.6099724713372261  1.0000
  As  As773     1.0  0.20131147540983607  0.4375  0.5923792325131083  1.0000
  As  As774     1.0  0.21442622950819673  0.4375  0.6009627354426595  1.0000
  As  As775     1.0  0.28459016393442627  0.4375  0.5978532246437023  1.0000
  As  As776     1.0  0.2977049180327869  0.4375  0.5963979945037984  1.0000
  As  As777     1.0  0.3678688524590164  0.4375  0.6063879215647968  1.0000
  As  As778     1.0  0.3816393442622951  0.4375  0.6030860909864846  1.0000
  As  As779     1.0  0.45114754098360654  0.4375  0.598740328237218  1.0000
  As  As780     1.0  0.46491803278688526  0.4375  0.6043605355026931  1.0000
  As  As781     1.0  0.5344262295081967  0.4375  0.6029003175002419  1.0000
  As  As782     1.0  0.5481967213114755  0.4375  0.5997436138884847  1.0000
  As  As783     1.0  0.6177049180327869  0.4375  0.6069593777667193  1.0000
  As  As784     1.0  0.6314754098360656  0.4375  0.601738721760611  1.0000
  As  As785     1.0  0.7016393442622951  0.4375  0.590504982709048  1.0000
  As  As786     1.0  0.7147540983606557  0.4375  0.5953908458103797  1.0000
  As  As787     1.0  0.7849180327868852  0.4375  0.6036680420548814  1.0000
  As  As788     1.0  0.7980327868852459  0.4375  0.593853344659393  1.0000
  As  As789     1.0  0.8681967213114754  0.4375  0.6037651194996484  1.0000
  As  As790     1.0  0.8813114754098361  0.4375  0.5962205603519484  1.0000
  As  As791     1.0  0.9514754098360655  0.4375  0.6053586104816411  1.0000
  As  As792     1.0  0.9645901639344262  0.4375  0.59859327802351  1.0000
  Si  Si265     1.0  0.01377049197183064  0.4579545457466384  0.5931634514738671  1.0000
  As  As793     1.0  0.02819672131147541  0.4579545454545455  0.5907881048968959  1.0000
  As  As794     1.0  0.05442622950819673  0.4579545454545455  0.6018713656727455  1.0000
  Si  Si266     1.0  0.06885245918494541  0.4579545457466384  0.6093187342601679  1.0000
  Si  Si267     1.0  0.0970491804964208  0.4579545457466384  0.6083810106063751  1.0000
  As  As795     1.0  0.11147540983606558  0.4579545454545455  0.5904464295382134  1.0000
  As  As796     1.0  0.13836065573770492  0.4579545454545455  0.6030262664717497  1.0000
  Si  Si268     1.0  0.15213114770953556  0.4579545457466384  0.602250957377858  1.0000
  Si  Si269     1.0  0.18032786902101097  0.4579545457466384  0.6098524726269492  1.0000
  As  As797     1.0  0.19475409836065577  0.4579545454545455  0.6068886302291632  1.0000
  As  As798     1.0  0.22163934426229512  0.4579545454545455  0.5954472930934377  1.0000
  Si  Si270     1.0  0.23606557393904376  0.4579545457466384  0.593452889834741  1.0000
  Si  Si271     1.0  0.26360655754560114  0.4579545457466384  0.6004586981753635  1.0000
  As  As799     1.0  0.27803278688524596  0.4579545454545455  0.6096577215846458  1.0000
  As  As800     1.0  0.30491803278688523  0.4579545454545455  0.5901716710243071  1.0000
  Si  Si272     1.0  0.31934426246363395  0.4579545457466384  0.6032107221803829  1.0000
  Si  Si273     1.0  0.3468852460701913  0.4579545457466384  0.6002317339269617  1.0000
  As  As801     1.0  0.36131147540983605  0.4579545454545455  0.6013623103961749  1.0000
  As  As802     1.0  0.3881967213114754  0.4579545454545455  0.5921439923059968  1.0000
  Si  Si274     1.0  0.4026229509882241  0.4579545457466384  0.6041675388488722  1.0000
  Si  Si275     1.0  0.43016393459478147  0.4579545457466384  0.5914752382226065  1.0000
  As  As803     1.0  0.4445901639344262  0.4579545454545455  0.6020088802467448  1.0000
  As  As804     1.0  0.4714754098360656  0.4579545454545455  0.5979204779831332  1.0000
  Si  Si276     1.0  0.4859016395128143  0.4579545457466384  0.5926821799822961  1.0000
  Si  Si277     1.0  0.5134426231193716  0.4579545457466384  0.5982521321328058  1.0000
  As  As805     1.0  0.5278688524590164  0.4579545454545455  0.6074458672919569  1.0000
  As  As806     1.0  0.5547540983606558  0.4579545454545455  0.6060164091571295  1.0000
  Si  Si278     1.0  0.5691803280374045  0.4579545457466384  0.5923837283051288  1.0000
  Si  Si279     1.0  0.5967213116439618  0.4579545457466384  0.5984137601178721  1.0000
  As  As807     1.0  0.6111475409836066  0.4579545454545455  0.600610675760884  1.0000
  As  As808     1.0  0.638032786885246  0.4579545454545455  0.6030248228378794  1.0000
  Si  Si280     1.0  0.6524590165619947  0.4579545457466384  0.6055181865476762  1.0000
  Si  Si281     1.0  0.6800000001685519  0.4579545457466384  0.6089889217322882  1.0000
  As  As809     1.0  0.6944262295081968  0.4579545454545455  0.5979682223225787  1.0000
  As  As810     1.0  0.7213114754098361  0.4579545454545455  0.6065181036548613  1.0000
  Si  Si282     1.0  0.7357377050865848  0.4579545457466384  0.5939111504195212  1.0000
  Si  Si283     1.0  0.7632786886931421  0.4579545457466384  0.6013046563032391  1.0000
  As  As811     1.0  0.777704918032787  0.4579545454545455  0.5991548253164651  1.0000
  As  As812     1.0  0.8045901639344263  0.4579545454545455  0.6031041670138596  1.0000
  Si  Si284     1.0  0.819016393611175  0.4579545457466384  0.591671839712517  1.0000
  Si  Si285     1.0  0.8472131149226502  0.4579545457466384  0.6062067139309119  1.0000
  As  As813     1.0  0.8609836065573772  0.4579545454545455  0.608001062802148  1.0000
  As  As814     1.0  0.8878688524590165  0.4579545454545455  0.603803382204509  1.0000
  Si  Si286     1.0  0.902295082135765  0.4579545457466384  0.6043575709171797  1.0000
  Si  Si287     1.0  0.9304918034472405  0.4579545457466384  0.6047308278589413  1.0000
  As  As815     1.0  0.9449180327868852  0.4579545454545455  0.6048233609003987  1.0000
  As  As816     1.0  0.9711475409836066  0.4579545454545455  0.6065431650490288  1.0000
  Si  Si288     1.0  0.9855737706603552  0.4579545457466384  0.597937562235436  1.0000
  As  As817     1.0  0.006557377049180328  0.4795454545454546  0.5916993498076074  1.0000
  As  As818     1.0  0.034754098360655745  0.47840909090909095  0.6087855377000473  1.0000
  As  As819     1.0  0.0478688524590164  0.47840909090909095  0.5933011193837237  1.0000
  As  As820     1.0  0.0760655737704918  0.4795454545454546  0.5922745463270126  1.0000
  As  As821     1.0  0.0898360655737705  0.4795454545454546  0.5903842749077439  1.0000
  As  As822     1.0  0.1180327868852459  0.47840909090909095  0.5932454448430907  1.0000
  As  As823     1.0  0.13114754098360656  0.47840909090909095  0.600771555533642  1.0000
  As  As824     1.0  0.15934426229508197  0.4795454545454546  0.599571758123036  1.0000
  As  As825     1.0  0.17311475409836066  0.4795454545454546  0.6081399731231989  1.0000
  As  As826     1.0  0.20131147540983607  0.47840909090909095  0.5994860443288595  1.0000
  As  As827     1.0  0.21442622950819673  0.47840909090909095  0.6034515516949135  1.0000
  As  As828     1.0  0.24327868852459017  0.4795454545454546  0.6024927496111665  1.0000
  As  As829     1.0  0.25639344262295083  0.4795454545454546  0.5937058514415025  1.0000
  As  As830     1.0  0.28459016393442627  0.47840909090909095  0.5965553077918211  1.0000
  As  As831     1.0  0.2977049180327869  0.47840909090909095  0.6000226909242488  1.0000
  As  As832     1.0  0.32655737704918036  0.4795454545454546  0.5989356333401591  1.0000
  As  As833     1.0  0.339672131147541  0.4795454545454546  0.6065253457777209  1.0000
  As  As834     1.0  0.3678688524590164  0.47840909090909095  0.5971771980288978  1.0000
  As  As835     1.0  0.3816393442622951  0.47840909090909095  0.6097749791793272  1.0000
  As  As836     1.0  0.4098360655737705  0.4795454545454546  0.5914082138674835  1.0000
  As  As837     1.0  0.42295081967213116  0.4795454545454546  0.5999241858684611  1.0000
  As  As838     1.0  0.45114754098360654  0.47840909090909095  0.6040035183570389  1.0000
  As  As839     1.0  0.46491803278688526  0.47840909090909095  0.5965829465423171  1.0000
  As  As840     1.0  0.4931147540983607  0.4795454545454546  0.6037171929471759  1.0000
  As  As841     1.0  0.5062295081967213  0.4795454545454546  0.6013630415077267  1.0000
  As  As842     1.0  0.5344262295081967  0.47840909090909095  0.5950062839475094  1.0000
  As  As843     1.0  0.5481967213114755  0.47840909090909095  0.6021256144459707  1.0000
  As  As844     1.0  0.5763934426229509  0.4795454545454546  0.590791176578523  1.0000
  As  As845     1.0  0.5895081967213115  0.4795454545454546  0.5900895928633839  1.0000
  As  As846     1.0  0.6177049180327869  0.47840909090909095  0.5980566618087323  1.0000
  As  As847     1.0  0.6314754098360656  0.47840909090909095  0.6082325816741259  1.0000
  As  As848     1.0  0.6596721311475411  0.4795454545454546  0.5932237276974489  1.0000
  As  As849     1.0  0.6727868852459017  0.4795454545454546  0.6098549919501592  1.0000
  As  As850     1.0  0.7016393442622951  0.47840909090909095  0.5962283882670418  1.0000
  As  As851     1.0  0.7147540983606557  0.47840909090909095  0.5976347981025107  1.0000
  As  As852     1.0  0.7429508196721312  0.4795454545454546  0.5939631254637947  1.0000
  As  As853     1.0  0.7560655737704919  0.4795454545454546  0.5910436210488405  1.0000
  As  As854     1.0  0.7849180327868852  0.47840909090909095  0.5937563629320705  1.0000
  As  As855     1.0  0.7980327868852459  0.47840909090909095  0.6066718992926425  1.0000
  As  As856     1.0  0.8262295081967214  0.4795454545454546  0.5970717442075711  1.0000
  As  As857     1.0  0.84  0.4795454545454546  0.5935750932184003  1.0000
  As  As858     1.0  0.8681967213114754  0.47840909090909095  0.5909898432917936  1.0000
  As  As859     1.0  0.8813114754098361  0.47840909090909095  0.6018771578092724  1.0000
  As  As860     1.0  0.9095081967213116  0.4795454545454546  0.5933796156839425  1.0000
  As  As861     1.0  0.9232786885245903  0.4795454545454546  0.6090036185008295  1.0000
  As  As862     1.0  0.9514754098360655  0.47840909090909095  0.5998812166559276  1.0000
  As  As863     1.0  0.9645901639344262  0.47840909090909095  0.5928981755920081  1.0000
  As  As864     1.0  0.9927868852459016  0.4795454545454546  0.6078984660906377  1.0000
  As  As865     1.0  0.013114754098360656  0.5  0.6052782079365984  1.0000
  Si  Si289     1.0  0.027540983775109332  0.5000000002920929  0.5976585219964026  1.0000
  Si  Si290     1.0  0.05508196738166671  0.5000000002920929  0.5992262458735285  1.0000
  As  As866     1.0  0.06950819672131149  0.5  0.6045320233010978  1.0000
  As  As867     1.0  0.09639344262295083  0.5  0.5911337080505145  1.0000
  Si  Si291     1.0  0.1108196722996995  0.5000000002920929  0.5907827745288154  1.0000
  Si  Si292     1.0  0.1383606559062569  0.5000000002920929  0.5960567806174473  1.0000
  As  As868     1.0  0.15278688524590164  0.5  0.6043038497351175  1.0000
  As  As869     1.0  0.179672131147541  0.5  0.5935683693090641  1.0000
  Si  Si293     1.0  0.1940983608242897  0.5000000002920929  0.591455798958944  1.0000
  Si  Si294     1.0  0.22163934443084704  0.5000000002920929  0.5949889071618675  1.0000
  As  As870     1.0  0.2360655737704918  0.5  0.6079964048093961  1.0000
  As  As871     1.0  0.26295081967213113  0.5  0.5981079282418472  1.0000
  Si  Si295     1.0  0.27737704934887986  0.5000000002920929  0.6086343678779516  1.0000
  Si  Si296     1.0  0.30491803295543723  0.5000000002920929  0.6009321177717906  1.0000
  As  As872     1.0  0.319344262295082  0.5  0.6015861661280572  1.0000
  As  As873     1.0  0.3462295081967213  0.5  0.605749607497506  1.0000
  Si  Si297     1.0  0.36065573787347  0.5000000002920929  0.590148814905033  1.0000
  Si  Si298     1.0  0.38885245918494543  0.5000000002920929  0.5961433265181547  1.0000
  As  As874     1.0  0.40327868852459015  0.5  0.6054966414597497  1.0000
  As  As875     1.0  0.42950819672131146  0.5  0.6024420723457707  1.0000
  Si  Si299     1.0  0.44393442639806013  0.5000000002920929  0.6027321607297966  1.0000
  Si  Si300     1.0  0.4721311477095356  0.5000000002920929  0.5913172310343476  1.0000
  As  As876     1.0  0.48655737704918034  0.5  0.6003153643285292  1.0000
  As  As877     1.0  0.5127868852459017  0.5  0.601053464711224  1.0000
  Si  Si301     1.0  0.5272131149226503  0.5000000002920929  0.5905763658098967  1.0000
  Si  Si302     1.0  0.5554098362341258  0.5000000002920929  0.5930229557012691  1.0000
  As  As878     1.0  0.5698360655737705  0.5  0.606794812437761  1.0000
  As  As879     1.0  0.5960655737704919  0.5  0.6091325531421371  1.0000
  Si  Si303     1.0  0.6104918034472405  0.5000000002920929  0.5907167422847871  1.0000
  Si  Si304     1.0  0.6386885247587158  0.5000000002920929  0.5911634118117576  1.0000
  As  As880     1.0  0.6531147540983607  0.5  0.6094563292529086  1.0000
  As  As881     1.0  0.68  0.5  0.6002374573657828  1.0000
  Si  Si305     1.0  0.6944262296767487  0.5000000002920929  0.6002073122899342  1.0000
  Si  Si306     1.0  0.7219672132833059  0.5000000002920929  0.5968497296998084  1.0000
  As  As882     1.0  0.7363934426229509  0.5  0.608984462003002  1.0000
  As  As883     1.0  0.7632786885245902  0.5  0.6001412160365627  1.0000
  Si  Si307     1.0  0.7777049182013388  0.5000000002920929  0.604887123791449  1.0000
  Si  Si308     1.0  0.8052459018078961  0.5000000002920929  0.6074289097207103  1.0000
  As  As884     1.0  0.819672131147541  0.5  0.6079545688751118  1.0000
  As  As885     1.0  0.8465573770491803  0.5  0.6030057423901743  1.0000
  Si  Si309     1.0  0.860983606725929  0.5000000002920929  0.5929752877505501  1.0000
  Si  Si310     1.0  0.8885245903324863  0.5000000002920929  0.6034816122815582  1.0000
  As  As886     1.0  0.9029508196721313  0.5  0.6053990479864232  1.0000
  As  As887     1.0  0.9298360655737705  0.5  0.6059160957918466  1.0000
  Si  Si311     1.0  0.9442622952505191  0.5000000002920929  0.5980727647712111  1.0000
  Si  Si312     1.0  0.9718032788570764  0.5000000002920929  0.6067018273259565  1.0000
  As  As888     1.0  0.9862295081967214  0.5  0.5999445062095898  1.0000
  As  As889     1.0  0.006557377049180328  0.5193181818181819  0.5909385101168827  1.0000
  As  As890     1.0  0.034754098360655745  0.5204545454545455  0.5979770475653509  1.0000
  As  As891     1.0  0.0478688524590164  0.5204545454545455  0.5961345354001895  1.0000
  As  As892     1.0  0.0760655737704918  0.5193181818181819  0.5963314938952363  1.0000
  As  As893     1.0  0.0898360655737705  0.5193181818181819  0.5938819259078388  1.0000
  As  As894     1.0  0.1180327868852459  0.5204545454545455  0.5955716276068205  1.0000
  As  As895     1.0  0.13114754098360656  0.5204545454545455  0.6052724263259336  1.0000
  As  As896     1.0  0.15934426229508197  0.5193181818181819  0.5996079757984404  1.0000
  As  As897     1.0  0.17311475409836066  0.5193181818181819  0.5984656919484845  1.0000
  As  As898     1.0  0.20131147540983607  0.5204545454545455  0.6073801392018976  1.0000
  As  As899     1.0  0.21442622950819673  0.5204545454545455  0.59124217192757  1.0000
  As  As900     1.0  0.24327868852459017  0.5193181818181819  0.6039196923305177  1.0000
  As  As901     1.0  0.25639344262295083  0.5193181818181819  0.6009330052523842  1.0000
  As  As902     1.0  0.28459016393442627  0.5204545454545455  0.5948504077381667  1.0000
  As  As903     1.0  0.2977049180327869  0.5204545454545455  0.6063044713280337  1.0000
  As  As904     1.0  0.32655737704918036  0.5193181818181819  0.591126462799311  1.0000
  As  As905     1.0  0.339672131147541  0.5193181818181819  0.5930251527372572  1.0000
  As  As906     1.0  0.3678688524590164  0.5204545454545455  0.5934860799753636  1.0000
  As  As907     1.0  0.3816393442622951  0.5204545454545455  0.6081765369681419  1.0000
  As  As908     1.0  0.4098360655737705  0.5193181818181819  0.6022302273418706  1.0000
  As  As909     1.0  0.42295081967213116  0.5193181818181819  0.5978237885535093  1.0000
  As  As910     1.0  0.45114754098360654  0.5204545454545455  0.6016937682567325  1.0000
  As  As911     1.0  0.46491803278688526  0.5204545454545455  0.5927684613416484  1.0000
  As  As912     1.0  0.4931147540983607  0.5193181818181819  0.593322105816667  1.0000
  As  As913     1.0  0.5062295081967213  0.5193181818181819  0.605241147628088  1.0000
  As  As914     1.0  0.5344262295081967  0.5204545454545455  0.5978428190514519  1.0000
  As  As915     1.0  0.5481967213114755  0.5204545454545455  0.5960356090841002  1.0000
  As  As916     1.0  0.5763934426229509  0.5193181818181819  0.6048331432480136  1.0000
  As  As917     1.0  0.5895081967213115  0.5193181818181819  0.6059354104484612  1.0000
  As  As918     1.0  0.6177049180327869  0.5204545454545455  0.6097642018494975  1.0000
  As  As919     1.0  0.6314754098360656  0.5204545454545455  0.5943993878914354  1.0000
  As  As920     1.0  0.6596721311475411  0.5193181818181819  0.5938015399761191  1.0000
  As  As921     1.0  0.6727868852459017  0.5193181818181819  0.5910737340018372  1.0000
  As  As922     1.0  0.7016393442622951  0.5204545454545455  0.5992840511894514  1.0000
  As  As923     1.0  0.7147540983606557  0.5204545454545455  0.5985659458179065  1.0000
  As  As924     1.0  0.7429508196721312  0.5193181818181819  0.5979342783016897  1.0000
  As  As925     1.0  0.7560655737704919  0.5193181818181819  0.6083683931307787  1.0000
  As  As926     1.0  0.7849180327868852  0.5204545454545455  0.5903169060130766  1.0000
  As  As927     1.0  0.7980327868852459  0.5204545454545455  0.6086816516443799  1.0000
  As  As928     1.0  0.8262295081967214  0.5193181818181819  0.5990711582615921  1.0000
  As  As929     1.0  0.84  0.5193181818181819  0.5923772533992494  1.0000
  As  As930     1.0  0.8681967213114754  0.5204545454545455  0.5995288049442243  1.0000
  As  As931     1.0  0.8813114754098361  0.5204545454545455  0.5950929612509895  1.0000
  As  As932     1.0  0.9095081967213116  0.5193181818181819  0.6039572988515973  1.0000
  As  As933     1.0  0.9232786885245903  0.5193181818181819  0.5934658286318898  1.0000
  As  As934     1.0  0.9514754098360655  0.5204545454545455  0.6065594773708561  1.0000
  As  As935     1.0  0.9645901639344262  0.5204545454545455  0.5919868714277287  1.0000
  As  As936     1.0  0.9927868852459016  0.5193181818181819  0.5907489702236485  1.0000
  Si  Si313     1.0  0.01377049197183064  0.5409090912011838  0.6087045776814929  1.0000
  As  As937     1.0  0.02819672131147541  0.5409090909090909  0.593162368625681  1.0000
  As  As938     1.0  0.05442622950819673  0.5409090909090909  0.5907915006090053  1.0000
  Si  Si314     1.0  0.06885245918494541  0.5409090912011838  0.603062409198664  1.0000
  Si  Si315     1.0  0.0970491804964208  0.5409090912011838  0.6094110074826302  1.0000
  As  As939     1.0  0.11147540983606558  0.5409090909090909  0.5957028108716335  1.0000
  As  As940     1.0  0.13836065573770492  0.5409090909090909  0.5969010220384764  1.0000
  Si  Si316     1.0  0.15213114770953556  0.5409090912011838  0.5940012951755163  1.0000
  Si  Si317     1.0  0.18032786902101097  0.5409090912011838  0.5905188148271051  1.0000
  As  As941     1.0  0.19475409836065577  0.5409090909090909  0.6057023697189753  1.0000
  As  As942     1.0  0.22163934426229512  0.5409090909090909  0.5972559334331695  1.0000
  Si  Si318     1.0  0.23606557393904376  0.5409090912011838  0.6094075926315883  1.0000
  Si  Si319     1.0  0.26360655754560114  0.5409090912011838  0.6028485582723754  1.0000
  As  As943     1.0  0.27803278688524596  0.5409090909090909  0.598404396879166  1.0000
  As  As944     1.0  0.30491803278688523  0.5409090909090909  0.6003271175328386  1.0000
  Si  Si320     1.0  0.31934426246363395  0.5409090912011838  0.605741235646232  1.0000
  Si  Si321     1.0  0.3468852460701913  0.5409090912011838  0.5906789435184568  1.0000
  As  As945     1.0  0.36131147540983605  0.5409090909090909  0.6009347354195627  1.0000
  As  As946     1.0  0.3881967213114754  0.5409090909090909  0.5985142318656841  1.0000
  Si  Si322     1.0  0.4026229509882241  0.5409090912011838  0.5924744835884724  1.0000
  Si  Si323     1.0  0.43016393459478147  0.5409090912011838  0.5999783232861468  1.0000
  As  As947     1.0  0.4445901639344262  0.5409090909090909  0.5991268480170264  1.0000
  As  As948     1.0  0.4714754098360656  0.5409090909090909  0.5979191475156672  1.0000
  Si  Si324     1.0  0.4859016395128143  0.5409090912011838  0.6052071028001959  1.0000
  Si  Si325     1.0  0.5134426231193716  0.5409090912011838  0.5939459267285251  1.0000
  As  As949     1.0  0.5278688524590164  0.5409090909090909  0.5902432040305835  1.0000
  As  As950     1.0  0.5547540983606558  0.5409090909090909  0.6013800676600376  1.0000
  Si  Si326     1.0  0.5691803280374045  0.5409090912011838  0.6090926524848786  1.0000
  Si  Si327     1.0  0.5967213116439618  0.5409090912011838  0.608252047746568  1.0000
  As  As951     1.0  0.6111475409836066  0.5409090909090909  0.6076646644195591  1.0000
  As  As952     1.0  0.638032786885246  0.5409090909090909  0.6025085306174938  1.0000
  Si  Si328     1.0  0.6524590165619947  0.5409090912011838  0.6084074913869263  1.0000
  Si  Si329     1.0  0.6800000001685519  0.5409090912011838  0.6019185694397353  1.0000
  As  As953     1.0  0.6944262295081968  0.5409090909090909  0.600418830527643  1.0000
  As  As954     1.0  0.7213114754098361  0.5409090909090909  0.6018463489548826  1.0000
  Si  Si330     1.0  0.7357377050865848  0.5409090912011838  0.5992925831961725  1.0000
  Si  Si331     1.0  0.7632786886931421  0.5409090912011838  0.5946423186596309  1.0000
  As  As955     1.0  0.777704918032787  0.5409090909090909  0.5999283545864235  1.0000
  As  As956     1.0  0.8045901639344263  0.5409090909090909  0.590952735091382  1.0000
  Si  Si332     1.0  0.819016393611175  0.5409090912011838  0.600951118442623  1.0000
  Si  Si333     1.0  0.8472131149226502  0.5409090912011838  0.6071350455471003  1.0000
  As  As957     1.0  0.8609836065573772  0.5409090909090909  0.5975393752964671  1.0000
  As  As958     1.0  0.8878688524590165  0.5409090909090909  0.5903054558921385  1.0000
  Si  Si334     1.0  0.902295082135765  0.5409090912011838  0.5954184646303176  1.0000
  Si  Si335     1.0  0.9304918034472405  0.5409090912011838  0.5933877338422392  1.0000
  As  As959     1.0  0.9449180327868852  0.5409090909090909  0.5947787268289169  1.0000
  As  As960     1.0  0.9711475409836066  0.5409090909090909  0.5959628211459289  1.0000
  Si  Si336     1.0  0.9855737706603552  0.5409090912011838  0.601739267761975  1.0000
  As  As961     1.0  0.034754098360655745  0.5613636363636364  0.592024549101453  1.0000
  As  As962     1.0  0.0478688524590164  0.5613636363636364  0.5984406923807657  1.0000
  As  As963     1.0  0.1180327868852459  0.5613636363636364  0.5969232686789951  1.0000
  As  As964     1.0  0.13114754098360656  0.5613636363636364  0.591610156005841  1.0000
  As  As965     1.0  0.20131147540983607  0.5613636363636364  0.599535670385436  1.0000
  As  As966     1.0  0.21442622950819673  0.5613636363636364  0.6058182366503555  1.0000
  As  As967     1.0  0.28459016393442627  0.5613636363636364  0.5996475310437765  1.0000
  As  As968     1.0  0.2977049180327869  0.5613636363636364  0.6079576347170863  1.0000
  As  As969     1.0  0.3678688524590164  0.5613636363636364  0.5939839574099941  1.0000
  As  As970     1.0  0.3816393442622951  0.5613636363636364  0.6089831759732848  1.0000
  As  As971     1.0  0.45114754098360654  0.5613636363636364  0.6031956622972212  1.0000
  As  As972     1.0  0.46491803278688526  0.5613636363636364  0.5904165896861535  1.0000
  As  As973     1.0  0.5344262295081967  0.5613636363636364  0.6054770500650882  1.0000
  As  As974     1.0  0.5481967213114755  0.5613636363636364  0.5981684598502497  1.0000
  As  As975     1.0  0.6177049180327869  0.5613636363636364  0.598265490058861  1.0000
  As  As976     1.0  0.6314754098360656  0.5613636363636364  0.5901123745695567  1.0000
  As  As977     1.0  0.7016393442622951  0.5613636363636364  0.6052262712436254  1.0000
  As  As978     1.0  0.7147540983606557  0.5613636363636364  0.6002705028515617  1.0000
  As  As979     1.0  0.7849180327868852  0.5613636363636364  0.5917938822557072  1.0000
  As  As980     1.0  0.7980327868852459  0.5613636363636364  0.6021224332010399  1.0000
  As  As981     1.0  0.8681967213114754  0.5613636363636364  0.6006603895804473  1.0000
  As  As982     1.0  0.8813114754098361  0.5613636363636364  0.6018560599866665  1.0000
  As  As983     1.0  0.9514754098360655  0.5613636363636364  0.5906004069961661  1.0000
  As  As984     1.0  0.9645901639344262  0.5613636363636364  0.6067726827889884  1.0000
  As  As985     1.0  0.006557377049180328  0.5625  0.5944643175680858  1.0000
  As  As986     1.0  0.0760655737704918  0.5625  0.609468395496289  1.0000
  As  As987     1.0  0.0898360655737705  0.5625  0.5938351335179318  1.0000
  As  As988     1.0  0.15934426229508197  0.5625  0.5913246088554108  1.0000
  As  As989     1.0  0.17311475409836066  0.5625  0.5948991487082098  1.0000
  As  As990     1.0  0.24327868852459017  0.5625  0.6086119599844613  1.0000
  As  As991     1.0  0.25639344262295083  0.5625  0.5915003442064366  1.0000
  As  As992     1.0  0.32655737704918036  0.5625  0.5984491493808626  1.0000
  As  As993     1.0  0.339672131147541  0.5625  0.5948015951386648  1.0000
  As  As994     1.0  0.4098360655737705  0.5625  0.5903931820057278  1.0000
  As  As995     1.0  0.42295081967213116  0.5625  0.6080642900058978  1.0000
  As  As996     1.0  0.4931147540983607  0.5625  0.592168177592458  1.0000
  As  As997     1.0  0.5062295081967213  0.5625  0.6066782621657548  1.0000
  As  As998     1.0  0.5763934426229509  0.5625  0.591427538962348  1.0000
  As  As999     1.0  0.5895081967213115  0.5625  0.6035537291484042  1.0000
  As  As1000    1.0  0.6596721311475411  0.5625  0.5949259223310274  1.0000
  As  As1001    1.0  0.6727868852459017  0.5625  0.5909763222137875  1.0000
  As  As1002    1.0  0.7429508196721312  0.5625  0.5901627981987668  1.0000
  As  As1003    1.0  0.7560655737704919  0.5625  0.5946417017687327  1.0000
  As  As1004    1.0  0.8262295081967214  0.5625  0.5975636694647763  1.0000
  As  As1005    1.0  0.84  0.5625  0.6077361201478564  1.0000
  As  As1006    1.0  0.9095081967213116  0.5625  0.6069053957446118  1.0000
  As  As1007    1.0  0.9232786885245903  0.5625  0.6093136038037128  1.0000
  As  As1008    1.0  0.9927868852459016  0.5625  0.6039463597337552  1.0000
  As  As1009    1.0  0.013114754098360656  0.5829545454545455  0.5906126606653619  1.0000
  Si  Si337     1.0  0.027540983775109332  0.5829545457466384  0.6026728347273433  1.0000
  Si  Si338     1.0  0.05508196738166671  0.5829545457466384  0.603955443133223  1.0000
  As  As1010    1.0  0.06950819672131149  0.5829545454545455  0.5967416167581209  1.0000
  As  As1011    1.0  0.09639344262295083  0.5829545454545455  0.5917803765374046  1.0000
  Si  Si339     1.0  0.1108196722996995  0.5829545457466384  0.6093007086859606  1.0000
  Si  Si340     1.0  0.1383606559062569  0.5829545457466384  0.6050164367194341  1.0000
  As  As1012    1.0  0.15278688524590164  0.5829545454545455  0.608478939074883  1.0000
  As  As1013    1.0  0.179672131147541  0.5829545454545455  0.5937276671161417  1.0000
  Si  Si341     1.0  0.1940983608242897  0.5829545457466384  0.5903454223603045  1.0000
  Si  Si342     1.0  0.22163934443084704  0.5829545457466384  0.5912114448542772  1.0000
  As  As1014    1.0  0.2360655737704918  0.5829545454545455  0.5945384258686501  1.0000
  As  As1015    1.0  0.26295081967213113  0.5829545454545455  0.5917122023268363  1.0000
  Si  Si343     1.0  0.27737704934887986  0.5829545457466384  0.6004943922492944  1.0000
  Si  Si344     1.0  0.30491803295543723  0.5829545457466384  0.5954253553058456  1.0000
  As  As1016    1.0  0.319344262295082  0.5829545454545455  0.6015391110197279  1.0000
  As  As1017    1.0  0.3462295081967213  0.5829545454545455  0.5932359639671166  1.0000
  Si  Si345     1.0  0.36065573787347  0.5829545457466384  0.6008625030683789  1.0000
  Si  Si346     1.0  0.38885245918494543  0.5829545457466384  0.6097045408721112  1.0000
  As  As1018    1.0  0.40327868852459015  0.5829545454545455  0.5957038556073416  1.0000
  As  As1019    1.0  0.42950819672131146  0.5829545454545455  0.6056622938077764  1.0000
  Si  Si347     1.0  0.44393442639806013  0.5829545457466384  0.6083449410282784  1.0000
  Si  Si348     1.0  0.4721311477095356  0.5829545457466384  0.6086061075894882  1.0000
  As  As1020    1.0  0.48655737704918034  0.5829545454545455  0.6053034020318888  1.0000
  As  As1021    1.0  0.5127868852459017  0.5829545454545455  0.5983057889649476  1.0000
  Si  Si349     1.0  0.5272131149226503  0.5829545457466384  0.6000529056378148  1.0000
  Si  Si350     1.0  0.5554098362341258  0.5829545457466384  0.5978450736742498  1.0000
  As  As1022    1.0  0.5698360655737705  0.5829545454545455  0.5959716376511365  1.0000
  As  As1023    1.0  0.5960655737704919  0.5829545454545455  0.5980181132660686  1.0000
  Si  Si351     1.0  0.6104918034472405  0.5829545457466384  0.5949079089771052  1.0000
  Si  Si352     1.0  0.6386885247587158  0.5829545457466384  0.598733808208595  1.0000
  As  As1024    1.0  0.6531147540983607  0.5829545454545455  0.6035800650522207  1.0000
  As  As1025    1.0  0.68  0.5829545454545455  0.5910565243821223  1.0000
  Si  Si353     1.0  0.6944262296767487  0.5829545457466384  0.5983041489331907  1.0000
  Si  Si354     1.0  0.7219672132833059  0.5829545457466384  0.6030098751791686  1.0000
  As  As1026    1.0  0.7363934426229509  0.5829545454545455  0.6008896148729946  1.0000
  As  As1027    1.0  0.7632786885245902  0.5829545454545455  0.6098639879619316  1.0000
  Si  Si355     1.0  0.7777049182013388  0.5829545457466384  0.5970763415372938  1.0000
  Si  Si356     1.0  0.8052459018078961  0.5829545457466384  0.6026188381195686  1.0000
  As  As1028    1.0  0.819672131147541  0.5829545454545455  0.6021518514177222  1.0000
  As  As1029    1.0  0.8465573770491803  0.5829545454545455  0.6017686564445769  1.0000
  Si  Si357     1.0  0.860983606725929  0.5829545457466384  0.5981220690220853  1.0000
  Si  Si358     1.0  0.8885245903324863  0.5829545457466384  0.6023532974677042  1.0000
  As  As1030    1.0  0.9029508196721313  0.5829545454545455  0.59325997994563  1.0000
  As  As1031    1.0  0.9298360655737705  0.5829545454545455  0.5962532253065582  1.0000
  Si  Si359     1.0  0.9442622952505191  0.5829545457466384  0.6037549409627623  1.0000
  Si  Si360     1.0  0.9718032788570764  0.5829545457466384  0.6073238015749859  1.0000
  As  As1032    1.0  0.9862295081967214  0.5829545454545455  0.6052392716545418  1.0000
  As  As1033    1.0  0.006557377049180328  0.6034090909090909  0.6023120299922828  1.0000
  As  As1034    1.0  0.034754098360655745  0.6045454545454546  0.6018693379521178  1.0000
  As  As1035    1.0  0.0478688524590164  0.6045454545454546  0.6099507200383194  1.0000
  As  As1036    1.0  0.0760655737704918  0.6034090909090909  0.5981254456526279  1.0000
  As  As1037    1.0  0.0898360655737705  0.6034090909090909  0.5922039257259699  1.0000
  As  As1038    1.0  0.1180327868852459  0.6045454545454546  0.5932666244311013  1.0000
  As  As1039    1.0  0.13114754098360656  0.6045454545454546  0.603245579442188  1.0000
  As  As1040    1.0  0.15934426229508197  0.6034090909090909  0.5998728450061626  1.0000
  As  As1041    1.0  0.17311475409836066  0.6034090909090909  0.6017730065090348  1.0000
  As  As1042    1.0  0.20131147540983607  0.6045454545454546  0.599112915658232  1.0000
  As  As1043    1.0  0.21442622950819673  0.6045454545454546  0.5964508120773985  1.0000
  As  As1044    1.0  0.24327868852459017  0.6034090909090909  0.5993556118588527  1.0000
  As  As1045    1.0  0.25639344262295083  0.6034090909090909  0.6077729515636201  1.0000
  As  As1046    1.0  0.28459016393442627  0.6045454545454546  0.5961713362124474  1.0000
  As  As1047    1.0  0.2977049180327869  0.6045454545454546  0.5923672476790116  1.0000
  As  As1048    1.0  0.32655737704918036  0.6034090909090909  0.6082119192761045  1.0000
  As  As1049    1.0  0.339672131147541  0.6034090909090909  0.6068241901803756  1.0000
  As  As1050    1.0  0.3678688524590164  0.6045454545454546  0.6027534977962288  1.0000
  As  As1051    1.0  0.3816393442622951  0.6045454545454546  0.5917397404282885  1.0000
  As  As1052    1.0  0.4098360655737705  0.6034090909090909  0.6084199941466104  1.0000
  As  As1053    1.0  0.42295081967213116  0.6034090909090909  0.6083990366889775  1.0000
  As  As1054    1.0  0.45114754098360654  0.6045454545454546  0.5972471823469504  1.0000
  As  As1055    1.0  0.46491803278688526  0.6045454545454546  0.5913430840869406  1.0000
  As  As1056    1.0  0.4931147540983607  0.6034090909090909  0.5917043690507987  1.0000
  As  As1057    1.0  0.5062295081967213  0.6034090909090909  0.5973033885660634  1.0000
  As  As1058    1.0  0.5344262295081967  0.6045454545454546  0.5960269391289387  1.0000
  As  As1059    1.0  0.5481967213114755  0.6045454545454546  0.601402456141976  1.0000
  As  As1060    1.0  0.5763934426229509  0.6034090909090909  0.5974095555112785  1.0000
  As  As1061    1.0  0.5895081967213115  0.6034090909090909  0.6070029553167056  1.0000
  As  As1062    1.0  0.6177049180327869  0.6045454545454546  0.6013203938948669  1.0000
  As  As1063    1.0  0.6314754098360656  0.6045454545454546  0.6052169017339086  1.0000
  As  As1064    1.0  0.6596721311475411  0.6034090909090909  0.6084804422936665  1.0000
  As  As1065    1.0  0.6727868852459017  0.6034090909090909  0.5925793560426996  1.0000
  As  As1066    1.0  0.7016393442622951  0.6045454545454546  0.5958867712196423  1.0000
  As  As1067    1.0  0.7147540983606557  0.6045454545454546  0.6035545445032775  1.0000
  As  As1068    1.0  0.7429508196721312  0.6034090909090909  0.6015933554911257  1.0000
  As  As1069    1.0  0.7560655737704919  0.6034090909090909  0.6078489255615729  1.0000
  As  As1070    1.0  0.7849180327868852  0.6045454545454546  0.5956276537007471  1.0000
  As  As1071    1.0  0.7980327868852459  0.6045454545454546  0.599902115291477  1.0000
  As  As1072    1.0  0.8262295081967214  0.6034090909090909  0.5918189244772533  1.0000
  As  As1073    1.0  0.84  0.6034090909090909  0.602011845446515  1.0000
  As  As1074    1.0  0.8681967213114754  0.6045454545454546  0.6004003950903865  1.0000
  As  As1075    1.0  0.8813114754098361  0.6045454545454546  0.5905996388667483  1.0000
  As  As1076    1.0  0.9095081967213116  0.6034090909090909  0.5940597843723742  1.0000
  As  As1077    1.0  0.9232786885245903  0.6034090909090909  0.6092088074259278  1.0000
  As  As1078    1.0  0.9514754098360655  0.6045454545454546  0.5921544248568831  1.0000
  As  As1079    1.0  0.9645901639344262  0.6045454545454546  0.602695304116818  1.0000
  As  As1080    1.0  0.9927868852459016  0.6034090909090909  0.602470291135609  1.0000
  Si  Si361     1.0  0.01377049197183064  0.6238636366557293  0.5967770755886369  1.0000
  As  As1081    1.0  0.02819672131147541  0.6238636363636364  0.594664864685991  1.0000
  As  As1082    1.0  0.05442622950819673  0.6238636363636364  0.603767406004093  1.0000
  Si  Si362     1.0  0.06885245918494541  0.6238636366557293  0.5990307970248464  1.0000
  Si  Si363     1.0  0.0970491804964208  0.6238636366557293  0.5958298722385584  1.0000
  As  As1083    1.0  0.11147540983606558  0.6238636363636364  0.608618301384356  1.0000
  As  As1084    1.0  0.13836065573770492  0.6238636363636364  0.6066794685659584  1.0000
  Si  Si364     1.0  0.15213114770953556  0.6238636366557293  0.6056594939621074  1.0000
  Si  Si365     1.0  0.18032786902101097  0.6238636366557293  0.6031172260215922  1.0000
  As  As1085    1.0  0.19475409836065577  0.6238636363636364  0.6095148949918459  1.0000
  As  As1086    1.0  0.22163934426229512  0.6238636363636364  0.607974225439012  1.0000
  Si  Si366     1.0  0.23606557393904376  0.6238636366557293  0.5927725234514349  1.0000
  Si  Si367     1.0  0.26360655754560114  0.6238636366557293  0.5972899795137471  1.0000
  As  As1087    1.0  0.27803278688524596  0.6238636363636364  0.6083156674358503  1.0000
  As  As1088    1.0  0.30491803278688523  0.6238636363636364  0.6094578603347524  1.0000
  Si  Si368     1.0  0.31934426246363395  0.6238636366557293  0.5974725880106152  1.0000
  Si  Si369     1.0  0.3468852460701913  0.6238636366557293  0.6018285889513575  1.0000
  As  As1089    1.0  0.36131147540983605  0.6238636363636364  0.6072971134673962  1.0000
  As  As1090    1.0  0.3881967213114754  0.6238636363636364  0.6085672981215677  1.0000
  Si  Si370     1.0  0.4026229509882241  0.6238636366557293  0.6023997732922644  1.0000
  Si  Si371     1.0  0.43016393459478147  0.6238636366557293  0.5959938939222356  1.0000
  As  As1091    1.0  0.4445901639344262  0.6238636363636364  0.5991558676048733  1.0000
  As  As1092    1.0  0.4714754098360656  0.6238636363636364  0.6076135696270432  1.0000
  Si  Si372     1.0  0.4859016395128143  0.6238636366557293  0.6068318454636716  1.0000
  Si  Si373     1.0  0.5134426231193716  0.6238636366557293  0.5945887771855886  1.0000
  As  As1093    1.0  0.5278688524590164  0.6238636363636364  0.6035333925701649  1.0000
  As  As1094    1.0  0.5547540983606558  0.6238636363636364  0.5909048256908439  1.0000
  Si  Si374     1.0  0.5691803280374045  0.6238636366557293  0.590157688445645  1.0000
  Si  Si375     1.0  0.5967213116439618  0.6238636366557293  0.5961924345166792  1.0000
  As  As1095    1.0  0.6111475409836066  0.6238636363636364  0.592866705997831  1.0000
  As  As1096    1.0  0.638032786885246  0.6238636363636364  0.6088499639712356  1.0000
  Si  Si376     1.0  0.6524590165619947  0.6238636366557293  0.6078111027112829  1.0000
  Si  Si377     1.0  0.6800000001685519  0.6238636366557293  0.5950754920463995  1.0000
  As  As1097    1.0  0.6944262295081968  0.6238636363636364  0.5900076412807839  1.0000
  As  As1098    1.0  0.7213114754098361  0.6238636363636364  0.5941698793684841  1.0000
  Si  Si378     1.0  0.7357377050865848  0.6238636366557293  0.5928073621942347  1.0000
  Si  Si379     1.0  0.7632786886931421  0.6238636366557293  0.6050486705172937  1.0000
  As  As1099    1.0  0.777704918032787  0.6238636363636364  0.6036117033650189  1.0000
  As  As1100    1.0  0.8045901639344263  0.6238636363636364  0.6060790859964442  1.0000
  Si  Si380     1.0  0.819016393611175  0.6238636366557293  0.5951443346337907  1.0000
  Si  Si381     1.0  0.8472131149226502  0.6238636366557293  0.6076281916647035  1.0000
  As  As1101    1.0  0.8609836065573772  0.6238636363636364  0.5967452823960743  1.0000
  As  As1102    1.0  0.8878688524590165  0.6238636363636364  0.6090323315653269  1.0000
  Si  Si382     1.0  0.902295082135765  0.6238636366557293  0.5958845463540954  1.0000
  Si  Si383     1.0  0.9304918034472405  0.6238636366557293  0.5994707544575243  1.0000
  As  As1103    1.0  0.9449180327868852  0.6238636363636364  0.6070860931260322  1.0000
  As  As1104    1.0  0.9711475409836066  0.6238636363636364  0.5901962598905901  1.0000
  Si  Si384     1.0  0.9855737706603552  0.6238636366557293  0.6025592591171329  1.0000
  As  As1105    1.0  0.006557377049180328  0.6454545454545455  0.5911654304877858  1.0000
  As  As1106    1.0  0.034754098360655745  0.6443181818181819  0.5998607032678233  1.0000
  As  As1107    1.0  0.0478688524590164  0.6443181818181819  0.5937936684649152  1.0000
  As  As1108    1.0  0.0760655737704918  0.6454545454545455  0.5972600383727208  1.0000
  As  As1109    1.0  0.0898360655737705  0.6454545454545455  0.6001876837527423  1.0000
  As  As1110    1.0  0.1180327868852459  0.6443181818181819  0.5912539430898118  1.0000
  As  As1111    1.0  0.13114754098360656  0.6443181818181819  0.5973415422472584  1.0000
  As  As1112    1.0  0.15934426229508197  0.6454545454545455  0.6072364720319843  1.0000
  As  As1113    1.0  0.17311475409836066  0.6454545454545455  0.5914801931115756  1.0000
  As  As1114    1.0  0.20131147540983607  0.6443181818181819  0.6045169958488233  1.0000
  As  As1115    1.0  0.21442622950819673  0.6443181818181819  0.598740311339308  1.0000
  As  As1116    1.0  0.24327868852459017  0.6454545454545455  0.5993355012933647  1.0000
  As  As1117    1.0  0.25639344262295083  0.6454545454545455  0.5901438375318827  1.0000
  As  As1118    1.0  0.28459016393442627  0.6443181818181819  0.6093872727722628  1.0000
  As  As1119    1.0  0.2977049180327869  0.6443181818181819  0.6026471929181038  1.0000
  As  As1120    1.0  0.32655737704918036  0.6454545454545455  0.5953389108580657  1.0000
  As  As1121    1.0  0.339672131147541  0.6454545454545455  0.5915254812624603  1.0000
  As  As1122    1.0  0.3678688524590164  0.6443181818181819  0.5928154033196823  1.0000
  As  As1123    1.0  0.3816393442622951  0.6443181818181819  0.6014016323024196  1.0000
  As  As1124    1.0  0.4098360655737705  0.6454545454545455  0.598796156126146  1.0000
  As  As1125    1.0  0.42295081967213116  0.6454545454545455  0.6034303851946996  1.0000
  As  As1126    1.0  0.45114754098360654  0.6443181818181819  0.6039328115078111  1.0000
  As  As1127    1.0  0.46491803278688526  0.6443181818181819  0.6042197041237127  1.0000
  As  As1128    1.0  0.4931147540983607  0.6454545454545455  0.606314027427894  1.0000
  As  As1129    1.0  0.5062295081967213  0.6454545454545455  0.6035820876996276  1.0000
  As  As1130    1.0  0.5344262295081967  0.6443181818181819  0.5975657845880668  1.0000
  As  As1131    1.0  0.5481967213114755  0.6443181818181819  0.6037969742246726  1.0000
  As  As1132    1.0  0.5763934426229509  0.6454545454545455  0.5944972592975446  1.0000
  As  As1133    1.0  0.5895081967213115  0.6454545454545455  0.6094181104003842  1.0000
  As  As1134    1.0  0.6177049180327869  0.6443181818181819  0.5966193534110348  1.0000
  As  As1135    1.0  0.6314754098360656  0.6443181818181819  0.6024945480921484  1.0000
  As  As1136    1.0  0.6596721311475411  0.6454545454545455  0.6083784662744396  1.0000
  As  As1137    1.0  0.6727868852459017  0.6454545454545455  0.607222848078854  1.0000
  As  As1138    1.0  0.7016393442622951  0.6443181818181819  0.5942297299577863  1.0000
  As  As1139    1.0  0.7147540983606557  0.6443181818181819  0.5978913708553739  1.0000
  As  As1140    1.0  0.7429508196721312  0.6454545454545455  0.5983938551375261  1.0000
  As  As1141    1.0  0.7560655737704919  0.6454545454545455  0.5934748034608108  1.0000
  As  As1142    1.0  0.7849180327868852  0.6443181818181819  0.6062881288936381  1.0000
  As  As1143    1.0  0.7980327868852459  0.6443181818181819  0.6000503098737843  1.0000
  As  As1144    1.0  0.8262295081967214  0.6454545454545455  0.6044080942659135  1.0000
  As  As1145    1.0  0.84  0.6454545454545455  0.5965541002763746  1.0000
  As  As1146    1.0  0.8681967213114754  0.6443181818181819  0.6090200369854806  1.0000
  As  As1147    1.0  0.8813114754098361  0.6443181818181819  0.6046853877076851  1.0000
  As  As1148    1.0  0.9095081967213116  0.6454545454545455  0.6035740316565759  1.0000
  As  As1149    1.0  0.9232786885245903  0.6454545454545455  0.6035534588958751  1.0000
  As  As1150    1.0  0.9514754098360655  0.6443181818181819  0.6039265114477647  1.0000
  As  As1151    1.0  0.9645901639344262  0.6443181818181819  0.6096698027115313  1.0000
  As  As1152    1.0  0.9927868852459016  0.6454545454545455  0.6042738279826172  1.0000
  As  As1153    1.0  0.013114754098360656  0.6659090909090909  0.6019901871420555  1.0000
  Si  Si385     1.0  0.027540983775109332  0.6659090912011838  0.5997846297354399  1.0000
  Si  Si386     1.0  0.05508196738166671  0.6659090912011838  0.6038734572538691  1.0000
  As  As1154    1.0  0.06950819672131149  0.6659090909090909  0.5971146016054225  1.0000
  As  As1155    1.0  0.09639344262295083  0.6659090909090909  0.6081147003536267  1.0000
  Si  Si387     1.0  0.1108196722996995  0.6659090912011838  0.5953316220594219  1.0000
  Si  Si388     1.0  0.1383606559062569  0.6659090912011838  0.595474360446742  1.0000
  As  As1156    1.0  0.15278688524590164  0.6659090909090909  0.6030738255557064  1.0000
  As  As1157    1.0  0.179672131147541  0.6659090909090909  0.6087135575736622  1.0000
  Si  Si389     1.0  0.1940983608242897  0.6659090912011838  0.5923106964525929  1.0000
  Si  Si390     1.0  0.22163934443084704  0.6659090912011838  0.6051635039570913  1.0000
  As  As1158    1.0  0.2360655737704918  0.6659090909090909  0.6071617431966315  1.0000
  As  As1159    1.0  0.26295081967213113  0.6659090909090909  0.5969768021952374  1.0000
  Si  Si391     1.0  0.27737704934887986  0.6659090912011838  0.6010376264994067  1.0000
  Si  Si392     1.0  0.30491803295543723  0.6659090912011838  0.6088378596353944  1.0000
  As  As1160    1.0  0.319344262295082  0.6659090909090909  0.6080552429417513  1.0000
  As  As1161    1.0  0.3462295081967213  0.6659090909090909  0.6079363855311578  1.0000
  Si  Si393     1.0  0.36065573787347  0.6659090912011838  0.6039731602690853  1.0000
  Si  Si394     1.0  0.38885245918494543  0.6659090912011838  0.6012781243335493  1.0000
  As  As1162    1.0  0.40327868852459015  0.6659090909090909  0.6037673423851438  1.0000
  As  As1163    1.0  0.42950819672131146  0.6659090909090909  0.604334324363333  1.0000
  Si  Si395     1.0  0.44393442639806013  0.6659090912011838  0.5974944203050044  1.0000
  Si  Si396     1.0  0.4721311477095356  0.6659090912011838  0.5933941628511392  1.0000
  As  As1164    1.0  0.48655737704918034  0.6659090909090909  0.607818530512367  1.0000
  As  As1165    1.0  0.5127868852459017  0.6659090909090909  0.5906295540478353  1.0000
  Si  Si397     1.0  0.5272131149226503  0.6659090912011838  0.5916266309943529  1.0000
  Si  Si398     1.0  0.5554098362341258  0.6659090912011838  0.5941499677440878  1.0000
  As  As1166    1.0  0.5698360655737705  0.6659090909090909  0.5990832960531666  1.0000
  As  As1167    1.0  0.5960655737704919  0.6659090909090909  0.6021428179762494  1.0000
  Si  Si399     1.0  0.6104918034472405  0.6659090912011838  0.5962130969133036  1.0000
  Si  Si400     1.0  0.6386885247587158  0.6659090912011838  0.5931929518684892  1.0000
  As  As1168    1.0  0.6531147540983607  0.6659090909090909  0.5982371038721622  1.0000
  As  As1169    1.0  0.68  0.6659090909090909  0.5902472666179025  1.0000
  Si  Si401     1.0  0.6944262296767487  0.6659090912011838  0.6015970366796667  1.0000
  Si  Si402     1.0  0.7219672132833059  0.6659090912011838  0.6097364619360439  1.0000
  As  As1170    1.0  0.7363934426229509  0.6659090909090909  0.6021403161386512  1.0000
  As  As1171    1.0  0.7632786885245902  0.6659090909090909  0.6093206327672758  1.0000
  Si  Si403     1.0  0.7777049182013388  0.6659090912011838  0.5914915058807325  1.0000
  Si  Si404     1.0  0.8052459018078961  0.6659090912011838  0.60454209433173  1.0000
  As  As1172    1.0  0.819672131147541  0.6659090909090909  0.6031456223997886  1.0000
  As  As1173    1.0  0.8465573770491803  0.6659090909090909  0.605066672961637  1.0000
  Si  Si405     1.0  0.860983606725929  0.6659090912011838  0.597223156832485  1.0000
  Si  Si406     1.0  0.8885245903324863  0.6659090912011838  0.5924257353817551  1.0000
  As  As1174    1.0  0.9029508196721313  0.6659090909090909  0.6006745572956294  1.0000
  As  As1175    1.0  0.9298360655737705  0.6659090909090909  0.6003288191140765  1.0000
  Si  Si407     1.0  0.9442622952505191  0.6659090912011838  0.6004890513524668  1.0000
  Si  Si408     1.0  0.9718032788570764  0.6659090912011838  0.5936662214040709  1.0000
  As  As1176    1.0  0.9862295081967214  0.6659090909090909  0.6043387201330894  1.0000
  As  As1177    1.0  0.006557377049180328  0.6863636363636364  0.6064385406191086  1.0000
  As  As1178    1.0  0.0760655737704918  0.6863636363636364  0.592356171096768  1.0000
  As  As1179    1.0  0.0898360655737705  0.6863636363636364  0.5934974923125413  1.0000
  As  As1180    1.0  0.15934426229508197  0.6863636363636364  0.6075768070313287  1.0000
  As  As1181    1.0  0.17311475409836066  0.6863636363636364  0.6029329008762533  1.0000
  As  As1182    1.0  0.24327868852459017  0.6863636363636364  0.6029079175009736  1.0000
  As  As1183    1.0  0.25639344262295083  0.6863636363636364  0.6014743953799735  1.0000
  As  As1184    1.0  0.32655737704918036  0.6863636363636364  0.5950960754164186  1.0000
  As  As1185    1.0  0.339672131147541  0.6863636363636364  0.6096916228205427  1.0000
  As  As1186    1.0  0.4098360655737705  0.6863636363636364  0.6074151021066866  1.0000
  As  As1187    1.0  0.42295081967213116  0.6863636363636364  0.6094781780740727  1.0000
  As  As1188    1.0  0.4931147540983607  0.6863636363636364  0.5933154334316902  1.0000
  As  As1189    1.0  0.5062295081967213  0.6863636363636364  0.6063029526807008  1.0000
  As  As1190    1.0  0.5763934426229509  0.6863636363636364  0.6074494116005407  1.0000
  As  As1191    1.0  0.5895081967213115  0.6863636363636364  0.5993510423297967  1.0000
  As  As1192    1.0  0.6596721311475411  0.6863636363636364  0.6086405016608772  1.0000
  As  As1193    1.0  0.6727868852459017  0.6863636363636364  0.6074984484316284  1.0000
  As  As1194    1.0  0.7429508196721312  0.6863636363636364  0.599987370151868  1.0000
  As  As1195    1.0  0.7560655737704919  0.6863636363636364  0.5925968460541847  1.0000
  As  As1196    1.0  0.8262295081967214  0.6863636363636364  0.603260638463619  1.0000
  As  As1197    1.0  0.84  0.6863636363636364  0.593491500896418  1.0000
  As  As1198    1.0  0.9095081967213116  0.6863636363636364  0.6060216347380625  1.0000
  As  As1199    1.0  0.9232786885245903  0.6863636363636364  0.5976949033197488  1.0000
  As  As1200    1.0  0.9927868852459016  0.6863636363636364  0.6051897243524922  1.0000
  As  As1201    1.0  0.034754098360655745  0.6875  0.5949647294495768  1.0000
  As  As1202    1.0  0.0478688524590164  0.6875  0.5995208946471563  1.0000
  As  As1203    1.0  0.1180327868852459  0.6875  0.6007424505009175  1.0000
  As  As1204    1.0  0.13114754098360656  0.6875  0.5992926504322384  1.0000
  As  As1205    1.0  0.20131147540983607  0.6875  0.602284827005828  1.0000
  As  As1206    1.0  0.21442622950819673  0.6875  0.597464313320755  1.0000
  As  As1207    1.0  0.28459016393442627  0.6875  0.5906360515944928  1.0000
  As  As1208    1.0  0.2977049180327869  0.6875  0.6065305658828456  1.0000
  As  As1209    1.0  0.3678688524590164  0.6875  0.5916477352459617  1.0000
  As  As1210    1.0  0.3816393442622951  0.6875  0.6044425700065976  1.0000
  As  As1211    1.0  0.45114754098360654  0.6875  0.5991358334587841  1.0000
  As  As1212    1.0  0.46491803278688526  0.6875  0.6021759471914057  1.0000
  As  As1213    1.0  0.5344262295081967  0.6875  0.5911360581928782  1.0000
  As  As1214    1.0  0.5481967213114755  0.6875  0.5954791060686143  1.0000
  As  As1215    1.0  0.6177049180327869  0.6875  0.5984012622096698  1.0000
  As  As1216    1.0  0.6314754098360656  0.6875  0.6058663634540298  1.0000
  As  As1217    1.0  0.7016393442622951  0.6875  0.5924247582335735  1.0000
  As  As1218    1.0  0.7147540983606557  0.6875  0.6086736688717765  1.0000
  As  As1219    1.0  0.7849180327868852  0.6875  0.59126842169587  1.0000
  As  As1220    1.0  0.7980327868852459  0.6875  0.5974315938085302  1.0000
  As  As1221    1.0  0.8681967213114754  0.6875  0.6034967995123807  1.0000
  As  As1222    1.0  0.8813114754098361  0.6875  0.609211625588252  1.0000
  As  As1223    1.0  0.9514754098360655  0.6875  0.5966469807631649  1.0000
  As  As1224    1.0  0.9645901639344262  0.6875  0.5951734506134105  1.0000
  Si  Si409     1.0  0.01377049197183064  0.7079545457466384  0.606847670685111  1.0000
  As  As1225    1.0  0.02819672131147541  0.7079545454545455  0.6095990329303396  1.0000
  As  As1226    1.0  0.05442622950819673  0.7079545454545455  0.6002541671677407  1.0000
  Si  Si410     1.0  0.06885245918494541  0.7079545457466384  0.5936403373708169  1.0000
  Si  Si411     1.0  0.0970491804964208  0.7079545457466384  0.5934738002903848  1.0000
  As  As1227    1.0  0.11147540983606558  0.7079545454545455  0.5969789535432909  1.0000
  As  As1228    1.0  0.13836065573770492  0.7079545454545455  0.6098614038837705  1.0000
  Si  Si412     1.0  0.15213114770953556  0.7079545457466384  0.5919813839034013  1.0000
  Si  Si413     1.0  0.18032786902101097  0.7079545457466384  0.5962608097252453  1.0000
  As  As1229    1.0  0.19475409836065577  0.7079545454545455  0.5985958994102326  1.0000
  As  As1230    1.0  0.22163934426229512  0.7079545454545455  0.5924156768814103  1.0000
  Si  Si414     1.0  0.23606557393904376  0.7079545457466384  0.5921530178206879  1.0000
  Si  Si415     1.0  0.26360655754560114  0.7079545457466384  0.590502922905472  1.0000
  As  As1231    1.0  0.27803278688524596  0.7079545454545455  0.5971536585522109  1.0000
  As  As1232    1.0  0.30491803278688523  0.7079545454545455  0.5935791345544107  1.0000
  Si  Si416     1.0  0.31934426246363395  0.7079545457466384  0.5980300341113777  1.0000
  Si  Si417     1.0  0.3468852460701913  0.7079545457466384  0.60158651733757  1.0000
  As  As1233    1.0  0.36131147540983605  0.7079545454545455  0.593917308986661  1.0000
  As  As1234    1.0  0.3881967213114754  0.7079545454545455  0.6071409804614757  1.0000
  Si  Si418     1.0  0.4026229509882241  0.7079545457466384  0.5958216916948342  1.0000
  Si  Si419     1.0  0.43016393459478147  0.7079545457466384  0.5918137114392457  1.0000
  As  As1235    1.0  0.4445901639344262  0.7079545454545455  0.5986575694152498  1.0000
  As  As1236    1.0  0.4714754098360656  0.7079545454545455  0.5935022503783737  1.0000
  Si  Si420     1.0  0.4859016395128143  0.7079545457466384  0.6074981824763488  1.0000
  Si  Si421     1.0  0.5134426231193716  0.7079545457466384  0.5922279730363322  1.0000
  As  As1237    1.0  0.5278688524590164  0.7079545454545455  0.5969129927310456  1.0000
  As  As1238    1.0  0.5547540983606558  0.7079545454545455  0.6054158913296996  1.0000
  Si  Si422     1.0  0.5691803280374045  0.7079545457466384  0.6026234990038157  1.0000
  Si  Si423     1.0  0.5967213116439618  0.7079545457466384  0.5927249475688091  1.0000
  As  As1239    1.0  0.6111475409836066  0.7079545454545455  0.6075637280370564  1.0000
  As  As1240    1.0  0.638032786885246  0.7079545454545455  0.6079746510784476  1.0000
  Si  Si424     1.0  0.6524590165619947  0.7079545457466384  0.5920624348968738  1.0000
  Si  Si425     1.0  0.6800000001685519  0.7079545457466384  0.6030339368236594  1.0000
  As  As1241    1.0  0.6944262295081968  0.7079545454545455  0.5907898819635174  1.0000
  As  As1242    1.0  0.7213114754098361  0.7079545454545455  0.5953980244743771  1.0000
  Si  Si426     1.0  0.7357377050865848  0.7079545457466384  0.5936705561307024  1.0000
  Si  Si427     1.0  0.7632786886931421  0.7079545457466384  0.596243356478025  1.0000
  As  As1243    1.0  0.777704918032787  0.7079545454545455  0.6063541430274847  1.0000
  As  As1244    1.0  0.8045901639344263  0.7079545454545455  0.6003763507567044  1.0000
  Si  Si428     1.0  0.819016393611175  0.7079545457466384  0.5964378141323444  1.0000
  Si  Si429     1.0  0.8472131149226502  0.7079545457466384  0.5991327490096892  1.0000
  As  As1245    1.0  0.8609836065573772  0.7079545454545455  0.600923117869726  1.0000
  As  As1246    1.0  0.8878688524590165  0.7079545454545455  0.5998257711871136  1.0000
  Si  Si430     1.0  0.902295082135765  0.7079545457466384  0.5985583546333885  1.0000
  Si  Si431     1.0  0.9304918034472405  0.7079545457466384  0.6065877106013323  1.0000
  As  As1247    1.0  0.9449180327868852  0.7079545454545455  0.6009206160150693  1.0000
  As  As1248    1.0  0.9711475409836066  0.7079545454545455  0.5915086522112186  1.0000
  Si  Si432     1.0  0.9855737706603552  0.7079545457466384  0.6094506082143865  1.0000
  As  As1249    1.0  0.006557377049180328  0.7295454545454546  0.5954988675593292  1.0000
  As  As1250    1.0  0.034754098360655745  0.728409090909091  0.5940873612937936  1.0000
  As  As1251    1.0  0.0478688524590164  0.728409090909091  0.6012931695212878  1.0000
  As  As1252    1.0  0.0760655737704918  0.7295454545454546  0.6085856189258998  1.0000
  As  As1253    1.0  0.0898360655737705  0.7295454545454546  0.6086463415426236  1.0000
  As  As1254    1.0  0.1180327868852459  0.728409090909091  0.5941743167281393  1.0000
  As  As1255    1.0  0.13114754098360656  0.728409090909091  0.6094874493394549  1.0000
  As  As1256    1.0  0.15934426229508197  0.7295454545454546  0.5964745820637068  1.0000
  As  As1257    1.0  0.17311475409836066  0.7295454545454546  0.6082860377466424  1.0000
  As  As1258    1.0  0.20131147540983607  0.728409090909091  0.6086841071713376  1.0000
  As  As1259    1.0  0.21442622950819673  0.728409090909091  0.5942791539073913  1.0000
  As  As1260    1.0  0.24327868852459017  0.7295454545454546  0.5959464427461898  1.0000
  As  As1261    1.0  0.25639344262295083  0.7295454545454546  0.5968245790407405  1.0000
  As  As1262    1.0  0.28459016393442627  0.728409090909091  0.5941605417267718  1.0000
  As  As1263    1.0  0.2977049180327869  0.728409090909091  0.5990000182488137  1.0000
  As  As1264    1.0  0.32655737704918036  0.7295454545454546  0.591337459131191  1.0000
  As  As1265    1.0  0.339672131147541  0.7295454545454546  0.6001623988295797  1.0000
  As  As1266    1.0  0.3678688524590164  0.728409090909091  0.6029305275806863  1.0000
  As  As1267    1.0  0.3816393442622951  0.728409090909091  0.5927372883665685  1.0000
  As  As1268    1.0  0.4098360655737705  0.7295454545454546  0.6007245495633342  1.0000
  As  As1269    1.0  0.42295081967213116  0.7295454545454546  0.5914210464574338  1.0000
  As  As1270    1.0  0.45114754098360654  0.728409090909091  0.5945577919702661  1.0000
  As  As1271    1.0  0.46491803278688526  0.728409090909091  0.5974719314069925  1.0000
  As  As1272    1.0  0.4931147540983607  0.7295454545454546  0.6073909838982496  1.0000
  As  As1273    1.0  0.5062295081967213  0.7295454545454546  0.5972739455890492  1.0000
  As  As1274    1.0  0.5344262295081967  0.728409090909091  0.5947293692047372  1.0000
  As  As1275    1.0  0.5481967213114755  0.728409090909091  0.5986553650439831  1.0000
  As  As1276    1.0  0.5763934426229509  0.7295454545454546  0.6045124194917246  1.0000
  As  As1277    1.0  0.5895081967213115  0.7295454545454546  0.6056658539892595  1.0000
  As  As1278    1.0  0.6177049180327869  0.728409090909091  0.6041449192640347  1.0000
  As  As1279    1.0  0.6314754098360656  0.728409090909091  0.5901704739734943  1.0000
  As  As1280    1.0  0.6596721311475411  0.7295454545454546  0.6052031176346949  1.0000
  As  As1281    1.0  0.6727868852459017  0.7295454545454546  0.6022951263630185  1.0000
  As  As1282    1.0  0.7016393442622951  0.728409090909091  0.6075498522355732  1.0000
  As  As1283    1.0  0.7147540983606557  0.728409090909091  0.5991989391234956  1.0000
  As  As1284    1.0  0.7429508196721312  0.7295454545454546  0.6031280592042676  1.0000
  As  As1285    1.0  0.7560655737704919  0.7295454545454546  0.5952718337073317  1.0000
  As  As1286    1.0  0.7849180327868852  0.728409090909091  0.5980838482543537  1.0000
  As  As1287    1.0  0.7980327868852459  0.728409090909091  0.6067446412468973  1.0000
  As  As1288    1.0  0.8262295081967214  0.7295454545454546  0.6010144280052244  1.0000
  As  As1289    1.0  0.84  0.7295454545454546  0.6013351120633698  1.0000
  As  As1290    1.0  0.8681967213114754  0.728409090909091  0.6007943146687226  1.0000
  As  As1291    1.0  0.8813114754098361  0.728409090909091  0.6062714506521165  1.0000
  As  As1292    1.0  0.9095081967213116  0.7295454545454546  0.5907107464440242  1.0000
  As  As1293    1.0  0.9232786885245903  0.7295454545454546  0.5937759298517807  1.0000
  As  As1294    1.0  0.9514754098360655  0.728409090909091  0.6084674212776265  1.0000
  As  As1295    1.0  0.9645901639344262  0.728409090909091  0.5923800385721781  1.0000
  As  As1296    1.0  0.9927868852459016  0.7295454545454546  0.5960955320102121  1.0000
  As  As1297    1.0  0.013114754098360656  0.75  0.595443045045639  1.0000
  Si  Si433     1.0  0.027540983775109332  0.750000000292093  0.6014404593240029  1.0000
  Si  Si434     1.0  0.05508196738166671  0.750000000292093  0.6018633226623966  1.0000
  As  As1298    1.0  0.06950819672131149  0.75  0.5912835529279258  1.0000
  As  As1299    1.0  0.09639344262295083  0.75  0.6066782390964671  1.0000
  Si  Si435     1.0  0.1108196722996995  0.750000000292093  0.6042541727939535  1.0000
  Si  Si436     1.0  0.1383606559062569  0.750000000292093  0.6057880036545813  1.0000
  As  As1300    1.0  0.15278688524590164  0.75  0.6039500061600952  1.0000
  As  As1301    1.0  0.179672131147541  0.75  0.5905977671577912  1.0000
  Si  Si437     1.0  0.1940983608242897  0.750000000292093  0.6071985353533845  1.0000
  Si  Si438     1.0  0.22163934443084704  0.750000000292093  0.5961842911776206  1.0000
  As  As1302    1.0  0.2360655737704918  0.75  0.5938918960035878  1.0000
  As  As1303    1.0  0.26295081967213113  0.75  0.6092863935294677  1.0000
  Si  Si439     1.0  0.27737704934887986  0.750000000292093  0.6059107625901773  1.0000
  Si  Si440     1.0  0.30491803295543723  0.750000000292093  0.5942733847414933  1.0000
  As  As1304    1.0  0.319344262295082  0.75  0.6044957209606496  1.0000
  As  As1305    1.0  0.3462295081967213  0.75  0.5913156390328373  1.0000
  Si  Si441     1.0  0.36065573787347  0.750000000292093  0.5962711743619251  1.0000
  Si  Si442     1.0  0.38885245918494543  0.750000000292093  0.5909464961939083  1.0000
  As  As1306    1.0  0.40327868852459015  0.75  0.5991362894109911  1.0000
  As  As1307    1.0  0.42950819672131146  0.75  0.6043539155518703  1.0000
  Si  Si443     1.0  0.44393442639806013  0.750000000292093  0.6000143953730732  1.0000
  Si  Si444     1.0  0.4721311477095356  0.750000000292093  0.5924246108675135  1.0000
  As  As1308    1.0  0.48655737704918034  0.75  0.604751061647736  1.0000
  As  As1309    1.0  0.5127868852459017  0.75  0.600281456588454  1.0000
  Si  Si445     1.0  0.5272131149226503  0.750000000292093  0.5924479475812374  1.0000
  Si  Si446     1.0  0.5554098362341258  0.750000000292093  0.5964903758868164  1.0000
  As  As1310    1.0  0.5698360655737705  0.75  0.5950802101466223  1.0000
  As  As1311    1.0  0.5960655737704919  0.75  0.5913109353142888  1.0000
  Si  Si447     1.0  0.6104918034472405  0.750000000292093  0.6054966484375587  1.0000
  Si  Si448     1.0  0.6386885247587158  0.750000000292093  0.6085559907790549  1.0000
  As  As1312    1.0  0.6531147540983607  0.75  0.5949925951597285  1.0000
  As  As1313    1.0  0.68  0.75  0.5902651294465815  1.0000
  Si  Si449     1.0  0.6944262296767487  0.750000000292093  0.5965064504189773  1.0000
  Si  Si450     1.0  0.7219672132833059  0.750000000292093  0.6056932649830943  1.0000
  As  As1314    1.0  0.7363934426229509  0.75  0.6047355075034964  1.0000
  As  As1315    1.0  0.7632786885245902  0.75  0.5920654119230393  1.0000
  Si  Si451     1.0  0.7777049182013388  0.750000000292093  0.6091089060751322  1.0000
  Si  Si452     1.0  0.8052459018078961  0.750000000292093  0.593426592139697  1.0000
  As  As1316    1.0  0.819672131147541  0.75  0.5984845145296206  1.0000
  As  As1317    1.0  0.8465573770491803  0.75  0.594874968682161  1.0000
  Si  Si453     1.0  0.860983606725929  0.750000000292093  0.6026349896495065  1.0000
  Si  Si454     1.0  0.8885245903324863  0.750000000292093  0.6093799836411232  1.0000
  As  As1318    1.0  0.9029508196721313  0.75  0.5988322151782681  1.0000
  As  As1319    1.0  0.9298360655737705  0.75  0.6015876439431442  1.0000
  Si  Si455     1.0  0.9442622952505191  0.750000000292093  0.5937288283430742  1.0000
  Si  Si456     1.0  0.9718032788570764  0.750000000292093  0.5922924151316551  1.0000
  As  As1320    1.0  0.9862295081967214  0.75  0.5972178505348384  1.0000
  As  As1321    1.0  0.006557377049180328  0.7693181818181819  0.6074117289913388  1.0000
  As  As1322    1.0  0.034754098360655745  0.7704545454545454  0.5904202092057333  1.0000
  As  As1323    1.0  0.0478688524590164  0.7704545454545454  0.5972458543587367  1.0000
  As  As1324    1.0  0.0760655737704918  0.7693181818181819  0.5958602832919228  1.0000
  As  As1325    1.0  0.0898360655737705  0.7693181818181819  0.6053301944138514  1.0000
  As  As1326    1.0  0.1180327868852459  0.7704545454545454  0.5990719376325873  1.0000
  As  As1327    1.0  0.13114754098360656  0.7704545454545454  0.597963055368706  1.0000
  As  As1328    1.0  0.15934426229508197  0.7693181818181819  0.6069703688414281  1.0000
  As  As1329    1.0  0.17311475409836066  0.7693181818181819  0.6038369162861531  1.0000
  As  As1330    1.0  0.20131147540983607  0.7704545454545454  0.5953576991770423  1.0000
  As  As1331    1.0  0.21442622950819673  0.7704545454545454  0.6057517788415606  1.0000
  As  As1332    1.0  0.24327868852459017  0.7693181818181819  0.5925334555746986  1.0000
  As  As1333    1.0  0.25639344262295083  0.7693181818181819  0.5987643853000693  1.0000
  As  As1334    1.0  0.28459016393442627  0.7704545454545454  0.6093242490706171  1.0000
  As  As1335    1.0  0.2977049180327869  0.7704545454545454  0.5966214818119733  1.0000
  As  As1336    1.0  0.32655737704918036  0.7693181818181819  0.5978774716713798  1.0000
  As  As1337    1.0  0.339672131147541  0.7693181818181819  0.6084320200916905  1.0000
  As  As1338    1.0  0.3678688524590164  0.7704545454545454  0.6058494763492261  1.0000
  As  As1339    1.0  0.3816393442622951  0.7704545454545454  0.60537022156162  1.0000
  As  As1340    1.0  0.4098360655737705  0.7693181818181819  0.5944582194313138  1.0000
  As  As1341    1.0  0.42295081967213116  0.7693181818181819  0.5943583347822238  1.0000
  As  As1342    1.0  0.45114754098360654  0.7704545454545454  0.6067855658243726  1.0000
  As  As1343    1.0  0.46491803278688526  0.7704545454545454  0.6077507586096741  1.0000
  As  As1344    1.0  0.4931147540983607  0.7693181818181819  0.6071073884859679  1.0000
  As  As1345    1.0  0.5062295081967213  0.7693181818181819  0.5920806781122524  1.0000
  As  As1346    1.0  0.5344262295081967  0.7704545454545454  0.6043826188593685  1.0000
  As  As1347    1.0  0.5481967213114755  0.7704545454545454  0.5972274710537754  1.0000
  As  As1348    1.0  0.5763934426229509  0.7693181818181819  0.6017796506091888  1.0000
  As  As1349    1.0  0.5895081967213115  0.7693181818181819  0.6099409525719702  1.0000
  As  As1350    1.0  0.6177049180327869  0.7704545454545454  0.5963454424834461  1.0000
  As  As1351    1.0  0.6314754098360656  0.7704545454545454  0.591196614651415  1.0000
  As  As1352    1.0  0.6596721311475411  0.7693181818181819  0.6082950974898151  1.0000
  As  As1353    1.0  0.6727868852459017  0.7693181818181819  0.5924286649632833  1.0000
  As  As1354    1.0  0.7016393442622951  0.7704545454545454  0.6038538671092701  1.0000
  As  As1355    1.0  0.7147540983606557  0.7704545454545454  0.603704029031335  1.0000
  As  As1356    1.0  0.7429508196721312  0.7693181818181819  0.6085546589127754  1.0000
  As  As1357    1.0  0.7560655737704919  0.7693181818181819  0.5938796180581302  1.0000
  As  As1358    1.0  0.7849180327868852  0.7704545454545454  0.6092154464575978  1.0000
  As  As1359    1.0  0.7980327868852459  0.7704545454545454  0.6055501686731358  1.0000
  As  As1360    1.0  0.8262295081967214  0.7693181818181819  0.5986634681815565  1.0000
  As  As1361    1.0  0.84  0.7693181818181819  0.598160044364292  1.0000
  As  As1362    1.0  0.8681967213114754  0.7704545454545454  0.6013816558792745  1.0000
  As  As1363    1.0  0.8813114754098361  0.7704545454545454  0.6088378162151923  1.0000
  As  As1364    1.0  0.9095081967213116  0.7693181818181819  0.6018617122633644  1.0000
  As  As1365    1.0  0.9232786885245903  0.7693181818181819  0.6080957490174166  1.0000
  As  As1366    1.0  0.9514754098360655  0.7704545454545454  0.5982903371282448  1.0000
  As  As1367    1.0  0.9645901639344262  0.7704545454545454  0.5974721124650796  1.0000
  As  As1368    1.0  0.9927868852459016  0.7693181818181819  0.6060534228501023  1.0000
  Si  Si457     1.0  0.01377049197183064  0.7909090912011838  0.6017062778214161  1.0000
  As  As1369    1.0  0.02819672131147541  0.790909090909091  0.6034891945787049  1.0000
  As  As1370    1.0  0.05442622950819673  0.790909090909091  0.6076370165697498  1.0000
  Si  Si458     1.0  0.06885245918494541  0.7909090912011838  0.5933055976215659  1.0000
  Si  Si459     1.0  0.0970491804964208  0.7909090912011838  0.6053530619618329  1.0000
  As  As1371    1.0  0.11147540983606558  0.790909090909091  0.6078862017342589  1.0000
  As  As1372    1.0  0.13836065573770492  0.790909090909091  0.6029589690841601  1.0000
  Si  Si460     1.0  0.15213114770953556  0.7909090912011838  0.6001651102578116  1.0000
  Si  Si461     1.0  0.18032786902101097  0.7909090912011838  0.5997525864719244  1.0000
  As  As1373    1.0  0.19475409836065577  0.790909090909091  0.6036044357494349  1.0000
  As  As1374    1.0  0.22163934426229512  0.790909090909091  0.5923242189828954  1.0000
  Si  Si462     1.0  0.23606557393904376  0.7909090912011838  0.5993637846322307  1.0000
  Si  Si463     1.0  0.26360655754560114  0.7909090912011838  0.6041112768317645  1.0000
  As  As1375    1.0  0.27803278688524596  0.790909090909091  0.6035169441912367  1.0000
  As  As1376    1.0  0.30491803278688523  0.790909090909091  0.6012339968820961  1.0000
  Si  Si464     1.0  0.31934426246363395  0.7909090912011838  0.6088723869027302  1.0000
  Si  Si465     1.0  0.3468852460701913  0.7909090912011838  0.596712126440079  1.0000
  As  As1377    1.0  0.36131147540983605  0.790909090909091  0.5943654885319062  1.0000
  As  As1378    1.0  0.3881967213114754  0.790909090909091  0.60121172385066  1.0000
  Si  Si466     1.0  0.4026229509882241  0.7909090912011838  0.6037937521223227  1.0000
  Si  Si467     1.0  0.43016393459478147  0.7909090912011838  0.597036703161775  1.0000
  As  As1379    1.0  0.4445901639344262  0.790909090909091  0.6016037012458931  1.0000
  As  As1380    1.0  0.4714754098360656  0.790909090909091  0.5927042095493819  1.0000
  Si  Si468     1.0  0.4859016395128143  0.7909090912011838  0.5951516558317511  1.0000
  Si  Si469     1.0  0.5134426231193716  0.7909090912011838  0.5906284269319844  1.0000
  As  As1381    1.0  0.5278688524590164  0.790909090909091  0.5976742705632953  1.0000
  As  As1382    1.0  0.5547540983606558  0.790909090909091  0.6058621906960759  1.0000
  Si  Si470     1.0  0.5691803280374045  0.7909090912011838  0.5913052779389502  1.0000
  Si  Si471     1.0  0.5967213116439618  0.7909090912011838  0.6049500910663279  1.0000
  As  As1383    1.0  0.6111475409836066  0.790909090909091  0.5951805692986433  1.0000
  As  As1384    1.0  0.638032786885246  0.790909090909091  0.5950362236678632  1.0000
  Si  Si472     1.0  0.6524590165619947  0.7909090912011838  0.5971878580311264  1.0000
  Si  Si473     1.0  0.6800000001685519  0.7909090912011838  0.606862971779949  1.0000
  As  As1385    1.0  0.6944262295081968  0.790909090909091  0.6075293119446982  1.0000
  As  As1386    1.0  0.7213114754098361  0.790909090909091  0.6090756650476605  1.0000
  Si  Si474     1.0  0.7357377050865848  0.7909090912011838  0.6049551737305049  1.0000
  Si  Si475     1.0  0.7632786886931421  0.7909090912011838  0.6058257579057351  1.0000
  As  As1387    1.0  0.777704918032787  0.790909090909091  0.6061918855348494  1.0000
  As  As1388    1.0  0.8045901639344263  0.790909090909091  0.5965773733470664  1.0000
  Si  Si476     1.0  0.819016393611175  0.7909090912011838  0.6051700517178991  1.0000
  Si  Si477     1.0  0.8472131149226502  0.7909090912011838  0.6095315989801178  1.0000
  As  As1389    1.0  0.8609836065573772  0.790909090909091  0.5970872878754637  1.0000
  As  As1390    1.0  0.8878688524590165  0.790909090909091  0.5975070556097637  1.0000
  Si  Si478     1.0  0.902295082135765  0.7909090912011838  0.5964934737279223  1.0000
  Si  Si479     1.0  0.9304918034472405  0.7909090912011838  0.5907238805818994  1.0000
  As  As1391    1.0  0.9449180327868852  0.790909090909091  0.5907133709544394  1.0000
  As  As1392    1.0  0.9711475409836066  0.790909090909091  0.5992275485642907  1.0000
  Si  Si480     1.0  0.9855737706603552  0.7909090912011838  0.5924754101497246  1.0000
  As  As1393    1.0  0.034754098360655745  0.8113636363636364  0.5991163927199888  1.0000
  As  As1394    1.0  0.0478688524590164  0.8113636363636364  0.6024505756190313  1.0000
  As  As1395    1.0  0.1180327868852459  0.8113636363636364  0.6087876476027514  1.0000
  As  As1396    1.0  0.13114754098360656  0.8113636363636364  0.592525538017341  1.0000
  As  As1397    1.0  0.20131147540983607  0.8113636363636364  0.60637204383077  1.0000
  As  As1398    1.0  0.21442622950819673  0.8113636363636364  0.6036828623851705  1.0000
  As  As1399    1.0  0.28459016393442627  0.8113636363636364  0.6013313096382398  1.0000
  As  As1400    1.0  0.2977049180327869  0.8113636363636364  0.5934282645146581  1.0000
  As  As1401    1.0  0.3678688524590164  0.8113636363636364  0.6039491339401398  1.0000
  As  As1402    1.0  0.3816393442622951  0.8113636363636364  0.6057399215634788  1.0000
  As  As1403    1.0  0.45114754098360654  0.8113636363636364  0.6086272964834243  1.0000
  As  As1404    1.0  0.46491803278688526  0.8113636363636364  0.6082127243459393  1.0000
  As  As1405    1.0  0.5344262295081967  0.8113636363636364  0.6052505322995638  1.0000
  As  As1406    1.0  0.5481967213114755  0.8113636363636364  0.5921414222139754  1.0000
  As  As1407    1.0  0.6177049180327869  0.8113636363636364  0.5962351757590634  1.0000
  As  As1408    1.0  0.6314754098360656  0.8113636363636364  0.5985531417018084  1.0000
  As  As1409    1.0  0.7016393442622951  0.8113636363636364  0.5932642541368751  1.0000
  As  As1410    1.0  0.7147540983606557  0.8113636363636364  0.6077469105765867  1.0000
  As  As1411    1.0  0.7849180327868852  0.8113636363636364  0.5945824258181128  1.0000
  As  As1412    1.0  0.7980327868852459  0.8113636363636364  0.6070100214665045  1.0000
  As  As1413    1.0  0.8681967213114754  0.8113636363636364  0.6077147171465794  1.0000
  As  As1414    1.0  0.8813114754098361  0.8113636363636364  0.5926602139655202  1.0000
  As  As1415    1.0  0.9514754098360655  0.8113636363636364  0.6060637363570232  1.0000
  As  As1416    1.0  0.9645901639344262  0.8113636363636364  0.5959254088289464  1.0000
  As  As1417    1.0  0.006557377049180328  0.8125  0.6038738897956728  1.0000
  As  As1418    1.0  0.0760655737704918  0.8125  0.6005466951508933  1.0000
  As  As1419    1.0  0.0898360655737705  0.8125  0.6078208777406577  1.0000
  As  As1420    1.0  0.15934426229508197  0.8125  0.5913923581224112  1.0000
  As  As1421    1.0  0.17311475409836066  0.8125  0.6050758792291856  1.0000
  As  As1422    1.0  0.24327868852459017  0.8125  0.6079989677774948  1.0000
  As  As1423    1.0  0.25639344262295083  0.8125  0.5912274791622546  1.0000
  As  As1424    1.0  0.32655737704918036  0.8125  0.5971527451599515  1.0000
  As  As1425    1.0  0.339672131147541  0.8125  0.6019573611424078  1.0000
  As  As1426    1.0  0.4098360655737705  0.8125  0.5994921289044468  1.0000
  As  As1427    1.0  0.42295081967213116  0.8125  0.6034016233329252  1.0000
  As  As1428    1.0  0.4931147540983607  0.8125  0.596433952732569  1.0000
  As  As1429    1.0  0.5062295081967213  0.8125  0.597512560175886  1.0000
  As  As1430    1.0  0.5763934426229509  0.8125  0.598879450961271  1.0000
  As  As1431    1.0  0.5895081967213115  0.8125  0.5984891511237336  1.0000
  As  As1432    1.0  0.6596721311475411  0.8125  0.6024645524133311  1.0000
  As  As1433    1.0  0.6727868852459017  0.8125  0.5955225881703083  1.0000
  As  As1434    1.0  0.7429508196721312  0.8125  0.608599492662723  1.0000
  As  As1435    1.0  0.7560655737704919  0.8125  0.6051138388680721  1.0000
  As  As1436    1.0  0.8262295081967214  0.8125  0.5919137959825238  1.0000
  As  As1437    1.0  0.84  0.8125  0.5934837682834369  1.0000
  As  As1438    1.0  0.9095081967213116  0.8125  0.5920191418962875  1.0000
  As  As1439    1.0  0.9232786885245903  0.8125  0.594978259245749  1.0000
  As  As1440    1.0  0.9927868852459016  0.8125  0.6049339038628581  1.0000
  As  As1441    1.0  0.013114754098360656  0.8329545454545454  0.601907651700628  1.0000
  Si  Si481     1.0  0.027540983775109332  0.8329545457466384  0.6026065605343743  1.0000
  Si  Si482     1.0  0.05508196738166671  0.8329545457466384  0.5971411374059158  1.0000
  As  As1442    1.0  0.06950819672131149  0.8329545454545454  0.6059373133053026  1.0000
  As  As1443    1.0  0.09639344262295083  0.8329545454545454  0.5973325041327312  1.0000
  Si  Si483     1.0  0.1108196722996995  0.8329545457466384  0.5969056294969718  1.0000
  Si  Si484     1.0  0.1383606559062569  0.8329545457466384  0.608178952124115  1.0000
  As  As1444    1.0  0.15278688524590164  0.8329545454545454  0.6099401800508573  1.0000
  As  As1445    1.0  0.179672131147541  0.8329545454545454  0.6038561374242484  1.0000
  Si  Si485     1.0  0.1940983608242897  0.8329545457466384  0.5945956815972171  1.0000
  Si  Si486     1.0  0.22163934443084704  0.8329545457466384  0.5992790216643139  1.0000
  As  As1446    1.0  0.2360655737704918  0.8329545454545454  0.5945853461883781  1.0000
  As  As1447    1.0  0.26295081967213113  0.8329545454545454  0.6046183273651821  1.0000
  Si  Si487     1.0  0.27737704934887986  0.8329545457466384  0.608808614746922  1.0000
  Si  Si488     1.0  0.30491803295543723  0.8329545457466384  0.5921007422790229  1.0000
  As  As1448    1.0  0.319344262295082  0.8329545454545454  0.5960081383021038  1.0000
  As  As1449    1.0  0.3462295081967213  0.8329545454545454  0.5964301207609893  1.0000
  Si  Si489     1.0  0.36065573787347  0.8329545457466384  0.5905297108614704  1.0000
  Si  Si490     1.0  0.38885245918494543  0.8329545457466384  0.6027831736537539  1.0000
  As  As1450    1.0  0.40327868852459015  0.8329545454545454  0.6032141237542632  1.0000
  As  As1451    1.0  0.42950819672131146  0.8329545454545454  0.6043387422879385  1.0000
  Si  Si491     1.0  0.44393442639806013  0.8329545457466384  0.5920843527626801  1.0000
  Si  Si492     1.0  0.4721311477095356  0.8329545457466384  0.6020127843877042  1.0000
  As  As1452    1.0  0.48655737704918034  0.8329545454545454  0.598514489275454  1.0000
  As  As1453    1.0  0.5127868852459017  0.8329545454545454  0.5944307563784291  1.0000
  Si  Si493     1.0  0.5272131149226503  0.8329545457466384  0.6002738787318341  1.0000
  Si  Si494     1.0  0.5554098362341258  0.8329545457466384  0.5964305052976989  1.0000
  As  As1454    1.0  0.5698360655737705  0.8329545454545454  0.5947439452306843  1.0000
  As  As1455    1.0  0.5960655737704919  0.8329545454545454  0.5930027326415702  1.0000
  Si  Si495     1.0  0.6104918034472405  0.8329545457466384  0.5955888007603471  1.0000
  Si  Si496     1.0  0.6386885247587158  0.8329545457466384  0.6030915903550514  1.0000
  As  As1456    1.0  0.6531147540983607  0.8329545454545454  0.5993273241820711  1.0000
  As  As1457    1.0  0.68  0.8329545454545454  0.6084026422474986  1.0000
  Si  Si497     1.0  0.6944262296767487  0.8329545457466384  0.6011959215814656  1.0000
  Si  Si498     1.0  0.7219672132833059  0.8329545457466384  0.6097960025929332  1.0000
  As  As1458    1.0  0.7363934426229509  0.8329545454545454  0.5987901659686327  1.0000
  As  As1459    1.0  0.7632786885245902  0.8329545454545454  0.6019943974086178  1.0000
  Si  Si499     1.0  0.7777049182013388  0.8329545457466384  0.5909630344083435  1.0000
  Si  Si500     1.0  0.8052459018078961  0.8329545457466384  0.5967869408739168  1.0000
  As  As1460    1.0  0.819672131147541  0.8329545454545454  0.6015310891732444  1.0000
  As  As1461    1.0  0.8465573770491803  0.8329545454545454  0.6015611465871304  1.0000
  Si  Si501     1.0  0.860983606725929  0.8329545457466384  0.6040400033511243  1.0000
  Si  Si502     1.0  0.8885245903324863  0.8329545457466384  0.5997106143393162  1.0000
  As  As1462    1.0  0.9029508196721313  0.8329545454545454  0.5951032980690834  1.0000
  As  As1463    1.0  0.9298360655737705  0.8329545454545454  0.6015878647264943  1.0000
  Si  Si503     1.0  0.9442622952505191  0.8329545457466384  0.608590391837213  1.0000
  Si  Si504     1.0  0.9718032788570764  0.8329545457466384  0.5945461786332438  1.0000
  As  As1464    1.0  0.9862295081967214  0.8329545454545454  0.6012556744805169  1.0000
  As  As1465    1.0  0.006557377049180328  0.853409090909091  0.6064365186674852  1.0000
  As  As1466    1.0  0.034754098360655745  0.8545454545454546  0.5955966544948267  1.0000
  As  As1467    1.0  0.0478688524590164  0.8545454545454546  0.608186996362214  1.0000
  As  As1468    1.0  0.0760655737704918  0.853409090909091  0.6045925325024569  1.0000
  As  As1469    1.0  0.0898360655737705  0.853409090909091  0.590195108370004  1.0000
  As  As1470    1.0  0.1180327868852459  0.8545454545454546  0.6065636374185539  1.0000
  As  As1471    1.0  0.13114754098360656  0.8545454545454546  0.5920113284230916  1.0000
  As  As1472    1.0  0.15934426229508197  0.853409090909091  0.5996855812485934  1.0000
  As  As1473    1.0  0.17311475409836066  0.853409090909091  0.6019914389567808  1.0000
  As  As1474    1.0  0.20131147540983607  0.8545454545454546  0.6072091441017147  1.0000
  As  As1475    1.0  0.21442622950819673  0.8545454545454546  0.6088732009481427  1.0000
  As  As1476    1.0  0.24327868852459017  0.853409090909091  0.6088934212185568  1.0000
  As  As1477    1.0  0.25639344262295083  0.853409090909091  0.6043081998515737  1.0000
  As  As1478    1.0  0.28459016393442627  0.8545454545454546  0.6016763084751648  1.0000
  As  As1479    1.0  0.2977049180327869  0.8545454545454546  0.60234235014318  1.0000
  As  As1480    1.0  0.32655737704918036  0.853409090909091  0.6067256843403016  1.0000
  As  As1481    1.0  0.339672131147541  0.853409090909091  0.5964611372538579  1.0000
  As  As1482    1.0  0.3678688524590164  0.8545454545454546  0.6018918545521261  1.0000
  As  As1483    1.0  0.3816393442622951  0.8545454545454546  0.6095649813892748  1.0000
  As  As1484    1.0  0.4098360655737705  0.853409090909091  0.6025989938748384  1.0000
  As  As1485    1.0  0.42295081967213116  0.853409090909091  0.5906645069979114  1.0000
  As  As1486    1.0  0.45114754098360654  0.8545454545454546  0.5962134082296154  1.0000
  As  As1487    1.0  0.46491803278688526  0.8545454545454546  0.605293768641584  1.0000
  As  As1488    1.0  0.4931147540983607  0.853409090909091  0.6091027397386881  1.0000
  As  As1489    1.0  0.5062295081967213  0.853409090909091  0.595055002944475  1.0000
  As  As1490    1.0  0.5344262295081967  0.8545454545454546  0.6032150641145456  1.0000
  As  As1491    1.0  0.5481967213114755  0.8545454545454546  0.5995973908131674  1.0000
  As  As1492    1.0  0.5763934426229509  0.853409090909091  0.6010505987582694  1.0000
  As  As1493    1.0  0.5895081967213115  0.853409090909091  0.5981927345735725  1.0000
  As  As1494    1.0  0.6177049180327869  0.8545454545454546  0.6027711413600121  1.0000
  As  As1495    1.0  0.6314754098360656  0.8545454545454546  0.6033706750273162  1.0000
  As  As1496    1.0  0.6596721311475411  0.853409090909091  0.5999135660156399  1.0000
  As  As1497    1.0  0.6727868852459017  0.853409090909091  0.5975062790065454  1.0000
  As  As1498    1.0  0.7016393442622951  0.8545454545454546  0.5957050011335715  1.0000
  As  As1499    1.0  0.7147540983606557  0.8545454545454546  0.6061528822797246  1.0000
  As  As1500    1.0  0.7429508196721312  0.853409090909091  0.607002596807536  1.0000
  As  As1501    1.0  0.7560655737704919  0.853409090909091  0.6000317374219644  1.0000
  As  As1502    1.0  0.7849180327868852  0.8545454545454546  0.5967449677396056  1.0000
  As  As1503    1.0  0.7980327868852459  0.8545454545454546  0.5914707593787998  1.0000
  As  As1504    1.0  0.8262295081967214  0.853409090909091  0.5966467154982031  1.0000
  As  As1505    1.0  0.84  0.853409090909091  0.6054020819854251  1.0000
  As  As1506    1.0  0.8681967213114754  0.8545454545454546  0.6087454138323631  1.0000
  As  As1507    1.0  0.8813114754098361  0.8545454545454546  0.5966498305065159  1.0000
  As  As1508    1.0  0.9095081967213116  0.853409090909091  0.6065323589196043  1.0000
  As  As1509    1.0  0.9232786885245903  0.853409090909091  0.6052848516827875  1.0000
  As  As1510    1.0  0.9514754098360655  0.8545454545454546  0.5914657331458899  1.0000
  As  As1511    1.0  0.9645901639344262  0.8545454545454546  0.6003028456176182  1.0000
  As  As1512    1.0  0.9927868852459016  0.853409090909091  0.5973923367436815  1.0000
  Si  Si505     1.0  0.01377049197183064  0.875000000292093  0.6068240977969688  1.0000
  As  As1513    1.0  0.02819672131147541  0.875  0.6045433123629405  1.0000
  As  As1514    1.0  0.05442622950819673  0.875  0.59551184339185  1.0000
  Si  Si506     1.0  0.06885245918494541  0.875000000292093  0.593062913970801  1.0000
  Si  Si507     1.0  0.0970491804964208  0.875000000292093  0.6036828107579062  1.0000
  As  As1515    1.0  0.11147540983606558  0.875  0.6088595323711528  1.0000
  As  As1516    1.0  0.13836065573770492  0.875  0.5977118595120174  1.0000
  Si  Si508     1.0  0.15213114770953556  0.875000000292093  0.5942112032215439  1.0000
  Si  Si509     1.0  0.18032786902101097  0.875000000292093  0.599238836403836  1.0000
  As  As1517    1.0  0.19475409836065577  0.875  0.6022858960144749  1.0000
  As  As1518    1.0  0.22163934426229512  0.875  0.5905237781934782  1.0000
  Si  Si510     1.0  0.23606557393904376  0.875000000292093  0.5999118697338548  1.0000
  Si  Si511     1.0  0.26360655754560114  0.875000000292093  0.5959640537433318  1.0000
  As  As1519    1.0  0.27803278688524596  0.875  0.5988624606426809  1.0000
  As  As1520    1.0  0.30491803278688523  0.875  0.6036951845734932  1.0000
  Si  Si512     1.0  0.31934426246363395  0.875000000292093  0.6033478349389162  1.0000
  Si  Si513     1.0  0.3468852460701913  0.875000000292093  0.5910019297303857  1.0000
  As  As1521    1.0  0.36131147540983605  0.875  0.603612302657605  1.0000
  As  As1522    1.0  0.3881967213114754  0.875  0.6004205687182226  1.0000
  Si  Si514     1.0  0.4026229509882241  0.875000000292093  0.5904563264502781  1.0000
  Si  Si515     1.0  0.43016393459478147  0.875000000292093  0.609187390509161  1.0000
  As  As1523    1.0  0.4445901639344262  0.875  0.60752557411308  1.0000
  As  As1524    1.0  0.4714754098360656  0.875  0.6017913992684617  1.0000
  Si  Si516     1.0  0.4859016395128143  0.875000000292093  0.5956397422298936  1.0000
  Si  Si517     1.0  0.5134426231193716  0.875000000292093  0.5901253868464982  1.0000
  As  As1525    1.0  0.5278688524590164  0.875  0.5973012555608846  1.0000
  As  As1526    1.0  0.5547540983606558  0.875  0.5992823061338499  1.0000
  Si  Si518     1.0  0.5691803280374045  0.875000000292093  0.5930080432304218  1.0000
  Si  Si519     1.0  0.5967213116439618  0.875000000292093  0.6012832091142086  1.0000
  As  As1527    1.0  0.6111475409836066  0.875  0.6004362951818604  1.0000
  As  As1528    1.0  0.638032786885246  0.875  0.6013716381790755  1.0000
  Si  Si520     1.0  0.6524590165619947  0.875000000292093  0.5929738007287458  1.0000
  Si  Si521     1.0  0.6800000001685519  0.875000000292093  0.5940379315756598  1.0000
  As  As1529    1.0  0.6944262295081968  0.875  0.6076389584418547  1.0000
  As  As1530    1.0  0.7213114754098361  0.875  0.5971651453165252  1.0000
  Si  Si522     1.0  0.7357377050865848  0.875000000292093  0.5911476515926778  1.0000
  Si  Si523     1.0  0.7632786886931421  0.875000000292093  0.6038350742877934  1.0000
  As  As1531    1.0  0.777704918032787  0.875  0.5958626687538707  1.0000
  As  As1532    1.0  0.8045901639344263  0.875  0.6076358790301748  1.0000
  Si  Si524     1.0  0.819016393611175  0.875000000292093  0.5995970303565038  1.0000
  Si  Si525     1.0  0.8472131149226502  0.875000000292093  0.5982162231568444  1.0000
  As  As1533    1.0  0.8609836065573772  0.875  0.599883251662433  1.0000
  As  As1534    1.0  0.8878688524590165  0.875  0.5946165242027782  1.0000
  Si  Si526     1.0  0.902295082135765  0.875000000292093  0.6035646558938927  1.0000
  Si  Si527     1.0  0.9304918034472405  0.875000000292093  0.6039047101465143  1.0000
  As  As1535    1.0  0.9449180327868852  0.875  0.6017092172316804  1.0000
  As  As1536    1.0  0.9711475409836066  0.875  0.5938241611253593  1.0000
  Si  Si528     1.0  0.9855737706603552  0.875000000292093  0.602847859780776  1.0000
  As  As1537    1.0  0.006557377049180328  0.8954545454545456  0.5935696004179666  1.0000
  As  As1538    1.0  0.034754098360655745  0.8943181818181819  0.6087200290438902  1.0000
  As  As1539    1.0  0.0478688524590164  0.8943181818181819  0.6087613751462704  1.0000
  As  As1540    1.0  0.0760655737704918  0.8954545454545456  0.5910738627334141  1.0000
  As  As1541    1.0  0.0898360655737705  0.8954545454545456  0.6012405135821277  1.0000
  As  As1542    1.0  0.1180327868852459  0.8943181818181819  0.604661501017692  1.0000
  As  As1543    1.0  0.13114754098360656  0.8943181818181819  0.5962092231944462  1.0000
  As  As1544    1.0  0.15934426229508197  0.8954545454545456  0.5958311204014447  1.0000
  As  As1545    1.0  0.17311475409836066  0.8954545454545456  0.5960458260936863  1.0000
  As  As1546    1.0  0.20131147540983607  0.8943181818181819  0.6051512677554306  1.0000
  As  As1547    1.0  0.21442622950819673  0.8943181818181819  0.592942958086373  1.0000
  As  As1548    1.0  0.24327868852459017  0.8954545454545456  0.6010066643816963  1.0000
  As  As1549    1.0  0.25639344262295083  0.8954545454545456  0.5924868566647643  1.0000
  As  As1550    1.0  0.28459016393442627  0.8943181818181819  0.5946263111987592  1.0000
  As  As1551    1.0  0.2977049180327869  0.8943181818181819  0.5946722877525427  1.0000
  As  As1552    1.0  0.32655737704918036  0.8954545454545456  0.5926663595542224  1.0000
  As  As1553    1.0  0.339672131147541  0.8954545454545456  0.5981523112386257  1.0000
  As  As1554    1.0  0.3678688524590164  0.8943181818181819  0.5968501923828472  1.0000
  As  As1555    1.0  0.3816393442622951  0.8943181818181819  0.5947209209654372  1.0000
  As  As1556    1.0  0.4098360655737705  0.8954545454545456  0.5901529234944081  1.0000
  As  As1557    1.0  0.42295081967213116  0.8954545454545456  0.6075933496038363  1.0000
  As  As1558    1.0  0.45114754098360654  0.8943181818181819  0.6043041875627742  1.0000
  As  As1559    1.0  0.46491803278688526  0.8943181818181819  0.6055072776345262  1.0000
  As  As1560    1.0  0.4931147540983607  0.8954545454545456  0.6046603233863369  1.0000
  As  As1561    1.0  0.5062295081967213  0.8954545454545456  0.6053522022401148  1.0000
  As  As1562    1.0  0.5344262295081967  0.8943181818181819  0.5962117280097318  1.0000
  As  As1563    1.0  0.5481967213114755  0.8943181818181819  0.6014865430069909  1.0000
  As  As1564    1.0  0.5763934426229509  0.8954545454545456  0.6062864394867946  1.0000
  As  As1565    1.0  0.5895081967213115  0.8954545454545456  0.6086656202614699  1.0000
  As  As1566    1.0  0.6177049180327869  0.8943181818181819  0.6080197519005126  1.0000
  As  As1567    1.0  0.6314754098360656  0.8943181818181819  0.6078555897795148  1.0000
  As  As1568    1.0  0.6596721311475411  0.8954545454545456  0.6059997357794302  1.0000
  As  As1569    1.0  0.6727868852459017  0.8954545454545456  0.5968043885868347  1.0000
  As  As1570    1.0  0.7016393442622951  0.8943181818181819  0.6066809193154659  1.0000
  As  As1571    1.0  0.7147540983606557  0.8943181818181819  0.5927940225575026  1.0000
  As  As1572    1.0  0.7429508196721312  0.8954545454545456  0.598392133363476  1.0000
  As  As1573    1.0  0.7560655737704919  0.8954545454545456  0.6001168500765351  1.0000
  As  As1574    1.0  0.7849180327868852  0.8943181818181819  0.5992451655540348  1.0000
  As  As1575    1.0  0.7980327868852459  0.8943181818181819  0.6042351370538357  1.0000
  As  As1576    1.0  0.8262295081967214  0.8954545454545456  0.6092056138679778  1.0000
  As  As1577    1.0  0.84  0.8954545454545456  0.5936369486396051  1.0000
  As  As1578    1.0  0.8681967213114754  0.8943181818181819  0.6046202791052315  1.0000
  As  As1579    1.0  0.8813114754098361  0.8943181818181819  0.5936043505032653  1.0000
  As  As1580    1.0  0.9095081967213116  0.8954545454545456  0.5906755182612763  1.0000
  As  As1581    1.0  0.9232786885245903  0.8954545454545456  0.6010707034123215  1.0000
  As  As1582    1.0  0.9514754098360655  0.8943181818181819  0.605348345814499  1.0000
  As  As1583    1.0  0.9645901639344262  0.8943181818181819  0.5947278148061385  1.0000
  As  As1584    1.0  0.9927868852459016  0.8954545454545456  0.601077910249977  1.0000
  As  As1585    1.0  0.013114754098360656  0.915909090909091  0.5999666554744204  1.0000
  Si  Si529     1.0  0.027540983775109332  0.9159090912011838  0.6013397319154745  1.0000
  Si  Si530     1.0  0.05508196738166671  0.9159090912011838  0.5999467775156704  1.0000
  As  As1586    1.0  0.06950819672131149  0.915909090909091  0.5973852797129179  1.0000
  As  As1587    1.0  0.09639344262295083  0.915909090909091  0.6086580372740957  1.0000
  Si  Si531     1.0  0.1108196722996995  0.9159090912011838  0.6032063840627817  1.0000
  Si  Si532     1.0  0.1383606559062569  0.9159090912011838  0.5998229558231409  1.0000
  As  As1588    1.0  0.15278688524590164  0.915909090909091  0.5989715368564373  1.0000
  As  As1589    1.0  0.179672131147541  0.915909090909091  0.6099514109217719  1.0000
  Si  Si533     1.0  0.1940983608242897  0.9159090912011838  0.5921334168334274  1.0000
  Si  Si534     1.0  0.22163934443084704  0.9159090912011838  0.604087797187632  1.0000
  As  As1590    1.0  0.2360655737704918  0.915909090909091  0.5906491116414307  1.0000
  As  As1591    1.0  0.26295081967213113  0.915909090909091  0.6034846899983523  1.0000
  Si  Si535     1.0  0.27737704934887986  0.9159090912011838  0.5984373783880723  1.0000
  Si  Si536     1.0  0.30491803295543723  0.9159090912011838  0.6099158456762394  1.0000
  As  As1592    1.0  0.319344262295082  0.915909090909091  0.6032255004571214  1.0000
  As  As1593    1.0  0.3462295081967213  0.915909090909091  0.5900349619131164  1.0000
  Si  Si537     1.0  0.36065573787347  0.9159090912011838  0.6074777831585962  1.0000
  Si  Si538     1.0  0.38885245918494543  0.9159090912011838  0.6055017816049151  1.0000
  As  As1594    1.0  0.40327868852459015  0.915909090909091  0.5987927018070525  1.0000
  As  As1595    1.0  0.42950819672131146  0.915909090909091  0.593110515916268  1.0000
  Si  Si539     1.0  0.44393442639806013  0.9159090912011838  0.6003911387567771  1.0000
  Si  Si540     1.0  0.4721311477095356  0.9159090912011838  0.5957353653120692  1.0000
  As  As1596    1.0  0.48655737704918034  0.915909090909091  0.6072596421274064  1.0000
  As  As1597    1.0  0.5127868852459017  0.915909090909091  0.5931024465743886  1.0000
  Si  Si541     1.0  0.5272131149226503  0.9159090912011838  0.6086195474195896  1.0000
  Si  Si542     1.0  0.5554098362341258  0.9159090912011838  0.5900311431929878  1.0000
  As  As1598    1.0  0.5698360655737705  0.915909090909091  0.5983546297145887  1.0000
  As  As1599    1.0  0.5960655737704919  0.915909090909091  0.6068834027058728  1.0000
  Si  Si543     1.0  0.6104918034472405  0.9159090912011838  0.6012446859242001  1.0000
  Si  Si544     1.0  0.6386885247587158  0.9159090912011838  0.5941852161687798  1.0000
  As  As1600    1.0  0.6531147540983607  0.915909090909091  0.5908186762452337  1.0000
  As  As1601    1.0  0.68  0.915909090909091  0.5908447250334247  1.0000
  Si  Si545     1.0  0.6944262296767487  0.9159090912011838  0.5986535134138159  1.0000
  Si  Si546     1.0  0.7219672132833059  0.9159090912011838  0.5931502442369189  1.0000
  As  As1602    1.0  0.7363934426229509  0.915909090909091  0.5915245872728122  1.0000
  As  As1603    1.0  0.7632786885245902  0.915909090909091  0.5906211628448862  1.0000
  Si  Si547     1.0  0.7777049182013388  0.9159090912011838  0.5909406770210532  1.0000
  Si  Si548     1.0  0.8052459018078961  0.9159090912011838  0.5968892032919078  1.0000
  As  As1604    1.0  0.819672131147541  0.915909090909091  0.5976006916046964  1.0000
  As  As1605    1.0  0.8465573770491803  0.915909090909091  0.590586302271315  1.0000
  Si  Si549     1.0  0.860983606725929  0.9159090912011838  0.6088277480364046  1.0000
  Si  Si550     1.0  0.8885245903324863  0.9159090912011838  0.6029856098271698  1.0000
  As  As1606    1.0  0.9029508196721313  0.915909090909091  0.6073988157998783  1.0000
  As  As1607    1.0  0.9298360655737705  0.915909090909091  0.6075639544819093  1.0000
  Si  Si551     1.0  0.9442622952505191  0.9159090912011838  0.5980663712402018  1.0000
  Si  Si552     1.0  0.9718032788570764  0.9159090912011838  0.6008524104778417  1.0000
  As  As1608    1.0  0.9862295081967214  0.915909090909091  0.598319453814747  1.0000
  As  As1609    1.0  0.006557377049180328  0.9363636363636365  0.5944547049206536  1.0000
  As  As1610    1.0  0.0760655737704918  0.9363636363636365  0.5999386807468284  1.0000
  As  As1611    1.0  0.0898360655737705  0.9363636363636365  0.5961077773705327  1.0000
  As  As1612    1.0  0.15934426229508197  0.9363636363636365  0.5915038998524768  1.0000
  As  As1613    1.0  0.17311475409836066  0.9363636363636365  0.604809905098187  1.0000
  As  As1614    1.0  0.24327868852459017  0.9363636363636365  0.5909410210181963  1.0000
  As  As1615    1.0  0.25639344262295083  0.9363636363636365  0.5987713348890706  1.0000
  As  As1616    1.0  0.32655737704918036  0.9363636363636365  0.5935564889144131  1.0000
  As  As1617    1.0  0.339672131147541  0.9363636363636365  0.6051757060782246  1.0000
  As  As1618    1.0  0.4098360655737705  0.9363636363636365  0.6030047852182299  1.0000
  As  As1619    1.0  0.42295081967213116  0.9363636363636365  0.5991151883656433  1.0000
  As  As1620    1.0  0.4931147540983607  0.9363636363636365  0.5991051646046279  1.0000
  As  As1621    1.0  0.5062295081967213  0.9363636363636365  0.5994816118949319  1.0000
  As  As1622    1.0  0.5763934426229509  0.9363636363636365  0.5923280398022162  1.0000
  As  As1623    1.0  0.5895081967213115  0.9363636363636365  0.590624379082383  1.0000
  As  As1624    1.0  0.6596721311475411  0.9363636363636365  0.6053798150334604  1.0000
  As  As1625    1.0  0.6727868852459017  0.9363636363636365  0.5973081940203532  1.0000
  As  As1626    1.0  0.7429508196721312  0.9363636363636365  0.6081461597655253  1.0000
  As  As1627    1.0  0.7560655737704919  0.9363636363636365  0.6062943501922883  1.0000
  As  As1628    1.0  0.8262295081967214  0.9363636363636365  0.5993201556857776  1.0000
  As  As1629    1.0  0.84  0.9363636363636365  0.6055850208036303  1.0000
  As  As1630    1.0  0.9095081967213116  0.9363636363636365  0.5903236618214737  1.0000
  As  As1631    1.0  0.9232786885245903  0.9363636363636365  0.6069847174339267  1.0000
  As  As1632    1.0  0.9927868852459016  0.9363636363636365  0.6087666541527179  1.0000
  As  As1633    1.0  0.034754098360655745  0.9375  0.598647577598487  1.0000
  As  As1634    1.0  0.0478688524590164  0.9375  0.5960799603362575  1.0000
  As  As1635    1.0  0.1180327868852459  0.9375  0.609608696373394  1.0000
  As  As1636    1.0  0.13114754098360656  0.9375  0.6049132457488396  1.0000
  As  As1637    1.0  0.20131147540983607  0.9375  0.6097989961578425  1.0000
  As  As1638    1.0  0.21442622950819673  0.9375  0.5923006627194142  1.0000
  As  As1639    1.0  0.28459016393442627  0.9375  0.5933876675003475  1.0000
  As  As1640    1.0  0.2977049180327869  0.9375  0.600614624587875  1.0000
  As  As1641    1.0  0.3678688524590164  0.9375  0.6027085774078658  1.0000
  As  As1642    1.0  0.3816393442622951  0.9375  0.5948840990736813  1.0000
  As  As1643    1.0  0.45114754098360654  0.9375  0.6052687160783121  1.0000
  As  As1644    1.0  0.46491803278688526  0.9375  0.5979166967935668  1.0000
  As  As1645    1.0  0.5344262295081967  0.9375  0.5911296990731942  1.0000
  As  As1646    1.0  0.5481967213114755  0.9375  0.5914080533184823  1.0000
  As  As1647    1.0  0.6177049180327869  0.9375  0.5970268275270145  1.0000
  As  As1648    1.0  0.6314754098360656  0.9375  0.5972961655305563  1.0000
  As  As1649    1.0  0.7016393442622951  0.9375  0.6019031847739189  1.0000
  As  As1650    1.0  0.7147540983606557  0.9375  0.6057195800279449  1.0000
  As  As1651    1.0  0.7849180327868852  0.9375  0.6036182758219486  1.0000
  As  As1652    1.0  0.7980327868852459  0.9375  0.5976308186014094  1.0000
  As  As1653    1.0  0.8681967213114754  0.9375  0.5970223676179797  1.0000
  As  As1654    1.0  0.8813114754098361  0.9375  0.6041720466379317  1.0000
  As  As1655    1.0  0.9514754098360655  0.9375  0.6084155790961212  1.0000
  As  As1656    1.0  0.9645901639344262  0.9375  0.5921928423546569  1.0000
  Si  Si553     1.0  0.01377049197183064  0.9579545457466384  0.5981049332926577  1.0000
  As  As1657    1.0  0.02819672131147541  0.9579545454545456  0.6048768211659579  1.0000
  As  As1658    1.0  0.05442622950819673  0.9579545454545456  0.6095692775490698  1.0000
  Si  Si554     1.0  0.06885245918494541  0.9579545457466384  0.5939385075389914  1.0000
  Si  Si555     1.0  0.0970491804964208  0.9579545457466384  0.5956738673321328  1.0000
  As  As1659    1.0  0.11147540983606558  0.9579545454545456  0.6059765738684186  1.0000
  As  As1660    1.0  0.13836065573770492  0.9579545454545456  0.6024563191010656  1.0000
  Si  Si556     1.0  0.15213114770953556  0.9579545457466384  0.6064763533048319  1.0000
  Si  Si557     1.0  0.18032786902101097  0.9579545457466384  0.6035375281641082  1.0000
  As  As1661    1.0  0.19475409836065577  0.9579545454545456  0.5959593629463863  1.0000
  As  As1662    1.0  0.22163934426229512  0.9579545454545456  0.6090507776525467  1.0000
  Si  Si558     1.0  0.23606557393904376  0.9579545457466384  0.5992560853685082  1.0000
  Si  Si559     1.0  0.26360655754560114  0.9579545457466384  0.5918780241010045  1.0000
  As  As1663    1.0  0.27803278688524596  0.9579545454545456  0.6049710919055533  1.0000
  As  As1664    1.0  0.30491803278688523  0.9579545454545456  0.5901620279407875  1.0000
  Si  Si560     1.0  0.31934426246363395  0.9579545457466384  0.5935904087706042  1.0000
  Si  Si561     1.0  0.3468852460701913  0.9579545457466384  0.6074599799468963  1.0000
  As  As1665    1.0  0.36131147540983605  0.9579545454545456  0.5954102810573118  1.0000
  As  As1666    1.0  0.3881967213114754  0.9579545454545456  0.6048728119897883  1.0000
  Si  Si562     1.0  0.4026229509882241  0.9579545457466384  0.6067584397414569  1.0000
  Si  Si563     1.0  0.43016393459478147  0.9579545457466384  0.6014246842600095  1.0000
  As  As1667    1.0  0.4445901639344262  0.9579545454545456  0.590722052785503  1.0000
  As  As1668    1.0  0.4714754098360656  0.9579545454545456  0.5902307171091011  1.0000
  Si  Si564     1.0  0.4859016395128143  0.9579545457466384  0.5916274418259801  1.0000
  Si  Si565     1.0  0.5134426231193716  0.9579545457466384  0.6019139347118584  1.0000
  As  As1669    1.0  0.5278688524590164  0.9579545454545456  0.5952790904617863  1.0000
  As  As1670    1.0  0.5547540983606558  0.9579545454545456  0.600787523543179  1.0000
  Si  Si566     1.0  0.5691803280374045  0.9579545457466384  0.6052949414589559  1.0000
  Si  Si567     1.0  0.5967213116439618  0.9579545457466384  0.5990374931485037  1.0000
  As  As1671    1.0  0.6111475409836066  0.9579545454545456  0.595387704081795  1.0000
  As  As1672    1.0  0.638032786885246  0.9579545454545456  0.5928390574696677  1.0000
  Si  Si568     1.0  0.6524590165619947  0.9579545457466384  0.6005112174464939  1.0000
  Si  Si569     1.0  0.6800000001685519  0.9579545457466384  0.5953212390244961  1.0000
  As  As1673    1.0  0.6944262295081968  0.9579545454545456  0.6094846588429118  1.0000
  As  As1674    1.0  0.7213114754098361  0.9579545454545456  0.5977677062750555  1.0000
  Si  Si570     1.0  0.7357377050865848  0.9579545457466384  0.5929163788428881  1.0000
  Si  Si571     1.0  0.7632786886931421  0.9579545457466384  0.6015588888342918  1.0000
  As  As1675    1.0  0.777704918032787  0.9579545454545456  0.5922411968048015  1.0000
  As  As1676    1.0  0.8045901639344263  0.9579545454545456  0.5933341145888471  1.0000
  Si  Si572     1.0  0.819016393611175  0.9579545457466384  0.6002013565718866  1.0000
  Si  Si573     1.0  0.8472131149226502  0.9579545457466384  0.5987348567902092  1.0000
  As  As1677    1.0  0.8609836065573772  0.9579545454545456  0.6040911417717809  1.0000
  As  As1678    1.0  0.8878688524590165  0.9579545454545456  0.5996481934497199  1.0000
  Si  Si574     1.0  0.902295082135765  0.9579545457466384  0.6066590863068945  1.0000
  Si  Si575     1.0  0.9304918034472405  0.9579545457466384  0.5904611004937811  1.0000
  As  As1679    1.0  0.9449180327868852  0.9579545454545456  0.5918430813239236  1.0000
  As  As1680    1.0  0.9711475409836066  0.9579545454545456  0.6057500588959384  1.0000
  Si  Si576     1.0  0.9855737706603552  0.9579545457466384  0.6020302576754104  1.0000
  As  As1681    1.0  0.006557377049180328  0.9795454545454546  0.6080470975159712  1.0000
  As  As1682    1.0  0.034754098360655745  0.978409090909091  0.5935868677659839  1.0000
  As  As1683    1.0  0.0478688524590164  0.978409090909091  0.6099656915285431  1.0000
  As  As1684    1.0  0.0760655737704918  0.9795454545454546  0.6003963797327956  1.0000
  As  As1685    1.0  0.0898360655737705  0.9795454545454546  0.594121184450531  1.0000
  As  As1686    1.0  0.1180327868852459  0.978409090909091  0.5953597538757002  1.0000
  As  As1687    1.0  0.13114754098360656  0.978409090909091  0.6089731976585043  1.0000
  As  As1688    1.0  0.15934426229508197  0.9795454545454546  0.5944953360832986  1.0000
  As  As1689    1.0  0.17311475409836066  0.9795454545454546  0.6085326755226345  1.0000
  As  As1690    1.0  0.20131147540983607  0.978409090909091  0.5931324944794636  1.0000
  As  As1691    1.0  0.21442622950819673  0.978409090909091  0.5917202007010732  1.0000
  As  As1692    1.0  0.24327868852459017  0.9795454545454546  0.5923560079344675  1.0000
  As  As1693    1.0  0.25639344262295083  0.9795454545454546  0.6039284311375184  1.0000
  As  As1694    1.0  0.28459016393442627  0.978409090909091  0.5917127347545116  1.0000
  As  As1695    1.0  0.2977049180327869  0.978409090909091  0.602985697079999  1.0000
  As  As1696    1.0  0.32655737704918036  0.9795454545454546  0.6043568241728028  1.0000
  As  As1697    1.0  0.339672131147541  0.9795454545454546  0.6067889221430912  1.0000
  As  As1698    1.0  0.3678688524590164  0.978409090909091  0.6003536127805709  1.0000
  As  As1699    1.0  0.3816393442622951  0.978409090909091  0.6012787963155577  1.0000
  As  As1700    1.0  0.4098360655737705  0.9795454545454546  0.597254695865873  1.0000
  As  As1701    1.0  0.42295081967213116  0.9795454545454546  0.5973933275921487  1.0000
  As  As1702    1.0  0.45114754098360654  0.978409090909091  0.6090622310413711  1.0000
  As  As1703    1.0  0.46491803278688526  0.978409090909091  0.6036708477055055  1.0000
  As  As1704    1.0  0.4931147540983607  0.9795454545454546  0.5985488153285994  1.0000
  As  As1705    1.0  0.5062295081967213  0.9795454545454546  0.6021781896476339  1.0000
  As  As1706    1.0  0.5344262295081967  0.978409090909091  0.6084594243510826  1.0000
  As  As1707    1.0  0.5481967213114755  0.978409090909091  0.603421200222843  1.0000
  As  As1708    1.0  0.5763934426229509  0.9795454545454546  0.6067885006213833  1.0000
  As  As1709    1.0  0.5895081967213115  0.9795454545454546  0.6025311236057252  1.0000
  As  As1710    1.0  0.6177049180327869  0.978409090909091  0.5997463692924615  1.0000
  As  As1711    1.0  0.6314754098360656  0.978409090909091  0.596834801608637  1.0000
  As  As1712    1.0  0.6596721311475411  0.9795454545454546  0.5927365851928633  1.0000
  As  As1713    1.0  0.6727868852459017  0.9795454545454546  0.6032208339839743  1.0000
  As  As1714    1.0  0.7016393442622951  0.978409090909091  0.5968870592722432  1.0000
  As  As1715    1.0  0.7147540983606557  0.978409090909091  0.6075535290962475  1.0000
  As  As1716    1.0  0.7429508196721312  0.9795454545454546  0.5987361197164892  1.0000
  As  As1717    1.0  0.7560655737704919  0.9795454545454546  0.5967393288380395  1.0000
  As  As1718    1.0  0.7849180327868852  0.978409090909091  0.594443202713732  1.0000
  As  As1719    1.0  0.7980327868852459  0.978409090909091  0.6071143951245864  1.0000
  As  As1720    1.0  0.8262295081967214  0.9795454545454546  0.6041230722788107  1.0000
  As  As1721    1.0  0.84  0.9795454545454546  0.6037429680912901  1.0000
  As  As1722    1.0  0.8681967213114754  0.978409090909091  0.6097084991802139  1.0000
  As  As1723    1.0  0.8813114754098361  0.978409090909091  0.6086865444245082  1.0000
  As  As1724    1.0  0.9095081967213116  0.9795454545454546  0.5914347971222317  1.0000
  As  As1725    1.0  0.9232786885245903  0.9795454545454546  0.591271034634963  1.0000
  As  As1726    1.0  0.9514754098360655  0.978409090909091  0.597153336297711  1.0000
  As  As1727    1.0  0.9645901639344262  0.978409090909091  0.6012522163478801  1.0000
  As  As1728    1.0  0.9927868852459016  0.9795454545454546  0.596128714753715  1.0000
